  0
SECTION
  2
ENTITIES
999
DXF created from EnergyPlus
999
Program Version,EnergyPlus, Version 8.4.0-09f5359d8a, YMD=2023.08.02 14:39
999
Polygon Action,TRIANGULATE3DFACE
999
Color Scheme,Default
999
Text - True North
  0
TEXT
  8
1
  6
Continuous
 62
  3
 10
    99988.00000
 20
   100002.00000
 30
        0.10000
 40
 .25
  1
True North
 41
 0.0
  7
MONOTXT
210
0.0
220
0.0
230
1.0
999
Text - Building Title
  0
TEXT
  8
1
  6
Continuous
 62
  3
 10
    99985.00000
 20
    99998.00000
 30
        0.10000
 40
 .4
  1
Building - Building
 41
 0.0
  7
MONOTXT
210
0.0
220
0.0
230
1.0
999
North Arrow Stem
  0
3DFACE
  8
1
 62
  3
 10
    99989.00000
 20
   100002.00000
 30
        0.10000
 11
    99989.00000
 21
   100002.00000
 31
        0.00000
 12
    99989.00000
 22
    99999.00000
 32
        0.00000
 13
    99989.00000
 23
    99999.00000
 33
        0.10000
999
North Arrow Head 1
  0
3DFACE
  8
1
 62
  3
 10
    99989.00000
 20
   100002.00000
 30
        0.10000
 11
    99989.00000
 21
   100002.00000
 31
        0.00000
 12
    99988.50000
 22
   100001.13398
 32
        0.00000
 13
    99988.50000
 23
   100001.13398
 33
        0.10000
999
North Arrow Head 2
  0
3DFACE
  8
1
 62
  3
 10
    99989.00000
 20
   100002.00000
 30
        0.10000
 11
    99989.00000
 21
   100002.00000
 31
        0.00000
 12
    99989.50000
 22
   100001.13398
 32
        0.00000
 13
    99989.50000
 23
   100001.13398
 33
        0.10000
999
North Arrow Side 1
  0
3DFACE
  8
1
 62
  3
 10
    99988.50000
 20
   100003.50000
 30
        0.10000
 11
    99988.50000
 21
   100003.50000
 31
        0.00000
 12
    99988.50000
 22
   100002.50000
 32
        0.00000
 13
    99988.50000
 23
   100002.50000
 33
        0.10000
999
North Arrow Side 2
  0
3DFACE
  8
1
 62
  3
 10
    99988.50000
 20
   100003.50000
 30
        0.10000
 11
    99988.50000
 21
   100003.50000
 31
        0.00000
 12
    99989.50000
 22
   100002.50000
 32
        0.00000
 13
    99989.50000
 23
   100002.50000
 33
        0.10000
999
North Arrow Side 3
  0
3DFACE
  8
1
 62
  3
 10
    99989.50000
 20
   100003.50000
 30
        0.10000
 11
    99989.50000
 21
   100003.50000
 31
        0.00000
 12
    99989.50000
 22
   100002.50000
 32
        0.00000
 13
    99989.50000
 23
   100002.50000
 33
        0.10000
999
Zone Names
999
Zone=1:PERIM
999
Zone=2:CORE
999
Building Shading:SHADER_0
  0
3DFACE
  8
Building Shading
 62
195
 10
   959683.18750
 20
  1946511.12500
 30
      104.24070
 11
   959683.18750
 21
  1946511.12500
 31
       43.24070
 12
   959674.62500
 22
  1946549.12500
 32
       43.24070
 13
   959674.62500
 23
  1946549.12500
 33
      104.24070
999
Building Shading:Mir-SHADER_0
  0
3DFACE
  8
Building Shading
 62
195
 10
   959674.62500
 20
  1946549.12500
 30
      104.24070
 11
   959674.62500
 21
  1946549.12500
 31
       43.24070
 12
   959683.18750
 22
  1946511.12500
 32
       43.24070
 13
   959683.18750
 23
  1946511.12500
 33
      104.24070
999
Building Shading:SHADER_1
  0
3DFACE
  8
Building Shading
 62
195
 10
   959761.62500
 20
  1946538.87500
 30
       65.98010
 11
   959761.62500
 21
  1946538.87500
 31
       39.98010
 12
   959704.56250
 22
  1946526.50000
 32
       39.98010
 13
   959704.56250
 23
  1946526.50000
 33
       65.98010
999
Building Shading:Mir-SHADER_1
  0
3DFACE
  8
Building Shading
 62
195
 10
   959704.56250
 20
  1946526.50000
 30
       65.98010
 11
   959704.56250
 21
  1946526.50000
 31
       39.98010
 12
   959761.62500
 22
  1946538.87500
 32
       39.98010
 13
   959761.62500
 23
  1946538.87500
 33
       65.98010
999
Building Shading:SHADER_2
  0
3DFACE
  8
Building Shading
 62
195
 10
   959769.68750
 20
  1946492.37500
 30
       93.09530
 11
   959769.68750
 21
  1946492.37500
 31
       40.09530
 12
   959764.43750
 22
  1946491.12500
 32
       40.09530
 13
   959764.43750
 23
  1946491.12500
 33
       93.09530
999
Building Shading:Mir-SHADER_2
  0
3DFACE
  8
Building Shading
 62
195
 10
   959764.43750
 20
  1946491.12500
 30
       93.09530
 11
   959764.43750
 21
  1946491.12500
 31
       40.09530
 12
   959769.68750
 22
  1946492.37500
 32
       40.09530
 13
   959769.68750
 23
  1946492.37500
 33
       93.09530
999
Building Shading:SHADER_3
  0
3DFACE
  8
Building Shading
 62
195
 10
   959804.31250
 20
  1946501.75000
 30
       93.09530
 11
   959804.31250
 21
  1946501.75000
 31
       40.09530
 12
   959801.18750
 22
  1946501.00000
 32
       40.09530
 13
   959801.18750
 23
  1946501.00000
 33
       93.09530
999
Building Shading:Mir-SHADER_3
  0
3DFACE
  8
Building Shading
 62
195
 10
   959801.18750
 20
  1946501.00000
 30
       93.09530
 11
   959801.18750
 21
  1946501.00000
 31
       40.09530
 12
   959804.31250
 22
  1946501.75000
 32
       40.09530
 13
   959804.31250
 23
  1946501.75000
 33
       93.09530
999
Building Shading:SHADER_4
  0
3DFACE
  8
Building Shading
 62
195
 10
   959780.87500
 20
  1946570.87500
 30
       96.98660
 11
   959780.87500
 21
  1946570.87500
 31
       37.98660
 12
   959785.68750
 22
  1946549.00000
 32
       37.98660
 13
   959785.68750
 23
  1946549.00000
 33
       96.98660
999
Building Shading:Mir-SHADER_4
  0
3DFACE
  8
Building Shading
 62
195
 10
   959785.68750
 20
  1946549.00000
 30
       96.98660
 11
   959785.68750
 21
  1946549.00000
 31
       37.98660
 12
   959780.87500
 22
  1946570.87500
 32
       37.98660
 13
   959780.87500
 23
  1946570.87500
 33
       96.98660
999
PERIM:PERIM:F0
  0
3DFACE
  8
PERIM
 62
 43
 10
   959765.89540
 20
  1946565.38610
 30
       53.51590
 11
   959765.89540
 21
  1946565.38610
 31
       50.40770
 12
   959768.81550
 22
  1946566.07400
 32
       50.40770
 13
   959768.81550
 23
  1946566.07400
 33
       53.51590
999
PERIM:PERIM:F0:W0
  0
3DFACE
  8
PERIM
 62
143
 10
   959765.99270
 20
  1946565.40910
 30
       52.58980
 11
   959765.99270
 21
  1946565.40910
 31
       51.25770
 12
   959768.71810
 22
  1946566.05110
 32
       51.25770
 13
   959768.71810
 23
  1946566.05110
 33
       52.58980
999
PERIM:PERIM:F1
  0
3DFACE
  8
PERIM
 62
 43
 10
   959768.17770
 20
  1946568.78130
 30
       53.51590
 11
   959768.17770
 21
  1946568.78130
 31
       50.40770
 12
   959765.25770
 22
  1946568.09340
 32
       50.40770
 13
   959765.25770
 23
  1946568.09340
 33
       53.51590
999
PERIM:PERIM:F2
  0
3DFACE
  8
PERIM
 62
 43
 10
   959768.81550
 20
  1946566.07400
 30
       53.51590
 11
   959768.81550
 21
  1946566.07400
 31
       50.40770
 12
   959768.17770
 22
  1946568.78130
 32
       50.40770
 13
   959768.17770
 23
  1946568.78130
 33
       53.51590
999
PERIM:PERIM:F3
  0
3DFACE
  8
PERIM
 62
 43
 10
   959765.25770
 20
  1946568.09340
 30
       53.51590
 11
   959765.25770
 21
  1946568.09340
 31
       50.40770
 12
   959765.89540
 22
  1946565.38610
 32
       50.40770
 13
   959765.89540
 23
  1946565.38610
 33
       53.51590
999
PERIM:PERIM:F4
  0
3DFACE
  8
PERIM
 62
  8
 10
   959765.89540
 20
  1946565.38610
 30
       50.40770
 11
   959765.30620
 21
  1946567.88730
 31
       50.40770
 12
   959768.22630
 22
  1946568.57510
 32
       50.40770
 13
   959768.81550
 23
  1946566.07400
 33
       50.40770
999
PERIM:PERIM:F5
  0
3DFACE
  8
PERIM
 62
  8
 10
   959765.30620
 20
  1946567.88730
 30
       50.40770
 11
   959765.25770
 21
  1946568.09340
 31
       50.40770
 12
   959768.17770
 22
  1946568.78130
 32
       50.40770
 13
   959768.22630
 23
  1946568.57510
 33
       50.40770
999
PERIM:PERIM:F6
  0
3DFACE
  8
PERIM
 62
 15
 10
   959765.89540
 20
  1946565.38610
 30
       53.51590
 11
   959768.81550
 21
  1946566.07400
 31
       53.51590
 12
   959768.22630
 22
  1946568.57510
 32
       53.51590
 13
   959765.30620
 23
  1946567.88730
 33
       53.51590
999
PERIM:PERIM:F7
  0
3DFACE
  8
PERIM
 62
 15
 10
   959765.30620
 20
  1946567.88730
 30
       53.51590
 11
   959768.22630
 21
  1946568.57510
 31
       53.51590
 12
   959768.17770
 22
  1946568.78130
 32
       53.51590
 13
   959765.25770
 23
  1946568.09340
 33
       53.51590
999
CORE:CORE:F0
  0
3DFACE
  8
CORE
 62
 43
 10
   959765.25770
 20
  1946568.09340
 30
       53.51590
 11
   959765.25770
 21
  1946568.09340
 31
       50.40770
 12
   959768.17770
 22
  1946568.78130
 32
       50.40770
 13
   959768.17770
 23
  1946568.78130
 33
       53.51590
999
CORE:CORE:F1
  0
3DFACE
  8
CORE
 62
 43
 10
   959767.79450
 20
  1946570.40840
 30
       53.51590
 11
   959767.79450
 21
  1946570.40840
 31
       50.40770
 12
   959764.87440
 22
  1946569.72050
 32
       50.40770
 13
   959764.87440
 23
  1946569.72050
 33
       53.51590
999
CORE:CORE:F2
  0
3DFACE
  8
CORE
 62
 43
 10
   959768.17770
 20
  1946568.78130
 30
       53.51590
 11
   959768.17770
 21
  1946568.78130
 31
       50.40770
 12
   959767.79450
 22
  1946570.40840
 32
       50.40770
 13
   959767.79450
 23
  1946570.40840
 33
       53.51590
999
CORE:CORE:F3
  0
3DFACE
  8
CORE
 62
 43
 10
   959764.87440
 20
  1946569.72050
 30
       53.51590
 11
   959764.87440
 21
  1946569.72050
 31
       50.40770
 12
   959765.25770
 22
  1946568.09340
 32
       50.40770
 13
   959765.25770
 23
  1946568.09340
 33
       53.51590
999
CORE:CORE:F4
  0
3DFACE
  8
CORE
 62
  8
 10
   959765.25770
 20
  1946568.09340
 30
       50.40770
 11
   959764.90360
 21
  1946569.59660
 31
       50.40770
 12
   959767.82360
 22
  1946570.28440
 32
       50.40770
 13
   959768.17770
 23
  1946568.78130
 33
       50.40770
999
CORE:CORE:F5
  0
3DFACE
  8
CORE
 62
  8
 10
   959764.90360
 20
  1946569.59660
 30
       50.40770
 11
   959764.87440
 21
  1946569.72050
 31
       50.40770
 12
   959767.79450
 22
  1946570.40840
 32
       50.40770
 13
   959767.82360
 23
  1946570.28440
 33
       50.40770
999
CORE:CORE:F6
  0
3DFACE
  8
CORE
 62
 15
 10
   959765.25770
 20
  1946568.09340
 30
       53.51590
 11
   959768.17770
 21
  1946568.78130
 31
       53.51590
 12
   959767.82360
 22
  1946570.28440
 32
       53.51590
 13
   959764.90360
 23
  1946569.59660
 33
       53.51590
999
CORE:CORE:F7
  0
3DFACE
  8
CORE
 62
 15
 10
   959764.90360
 20
  1946569.59660
 30
       53.51590
 11
   959767.82360
 21
  1946570.28440
 31
       53.51590
 12
   959767.79450
 22
  1946570.40840
 32
       53.51590
 13
   959764.87440
 23
  1946569.72050
 33
       53.51590
  0
ENDSEC
  0
EOF
