  0
SECTION
  2
ENTITIES
999
DXF created from EnergyPlus
999
Program Version,EnergyPlus, Version 8.4.0-09f5359d8a, YMD=2023.08.02 14:39
999
Polygon Action,TRIANGULATE3DFACE
999
Color Scheme,Default
999
Text - True North
  0
TEXT
  8
1
  6
Continuous
 62
  3
 10
    99988.00000
 20
   100002.00000
 30
        0.10000
 40
 .25
  1
True North
 41
 0.0
  7
MONOTXT
210
0.0
220
0.0
230
1.0
999
Text - Building Title
  0
TEXT
  8
1
  6
Continuous
 62
  3
 10
    99985.00000
 20
    99998.00000
 30
        0.10000
 40
 .4
  1
Building - Building
 41
 0.0
  7
MONOTXT
210
0.0
220
0.0
230
1.0
999
North Arrow Stem
  0
3DFACE
  8
1
 62
  3
 10
    99989.00000
 20
   100002.00000
 30
        0.10000
 11
    99989.00000
 21
   100002.00000
 31
        0.00000
 12
    99989.00000
 22
    99999.00000
 32
        0.00000
 13
    99989.00000
 23
    99999.00000
 33
        0.10000
999
North Arrow Head 1
  0
3DFACE
  8
1
 62
  3
 10
    99989.00000
 20
   100002.00000
 30
        0.10000
 11
    99989.00000
 21
   100002.00000
 31
        0.00000
 12
    99988.50000
 22
   100001.13398
 32
        0.00000
 13
    99988.50000
 23
   100001.13398
 33
        0.10000
999
North Arrow Head 2
  0
3DFACE
  8
1
 62
  3
 10
    99989.00000
 20
   100002.00000
 30
        0.10000
 11
    99989.00000
 21
   100002.00000
 31
        0.00000
 12
    99989.50000
 22
   100001.13398
 32
        0.00000
 13
    99989.50000
 23
   100001.13398
 33
        0.10000
999
North Arrow Side 1
  0
3DFACE
  8
1
 62
  3
 10
    99988.50000
 20
   100003.50000
 30
        0.10000
 11
    99988.50000
 21
   100003.50000
 31
        0.00000
 12
    99988.50000
 22
   100002.50000
 32
        0.00000
 13
    99988.50000
 23
   100002.50000
 33
        0.10000
999
North Arrow Side 2
  0
3DFACE
  8
1
 62
  3
 10
    99988.50000
 20
   100003.50000
 30
        0.10000
 11
    99988.50000
 21
   100003.50000
 31
        0.00000
 12
    99989.50000
 22
   100002.50000
 32
        0.00000
 13
    99989.50000
 23
   100002.50000
 33
        0.10000
999
North Arrow Side 3
  0
3DFACE
  8
1
 62
  3
 10
    99989.50000
 20
   100003.50000
 30
        0.10000
 11
    99989.50000
 21
   100003.50000
 31
        0.00000
 12
    99989.50000
 22
   100002.50000
 32
        0.00000
 13
    99989.50000
 23
   100002.50000
 33
        0.10000
999
Zone Names
999
Zone=1:PERIM
999
Zone=2:CORE
999
Building Shading:SHADER_0
  0
3DFACE
  8
Building Shading
 62
195
 10
   960313.50000
 20
  1946137.87500
 30
       97.32670
 11
   960313.50000
 21
  1946137.87500
 31
       39.32670
 12
   960306.93750
 22
  1946135.62500
 32
       39.32670
 13
   960306.93750
 23
  1946135.62500
 33
       97.32670
999
Building Shading:Mir-SHADER_0
  0
3DFACE
  8
Building Shading
 62
195
 10
   960306.93750
 20
  1946135.62500
 30
       97.32670
 11
   960306.93750
 21
  1946135.62500
 31
       39.32670
 12
   960313.50000
 22
  1946137.87500
 32
       39.32670
 13
   960313.50000
 23
  1946137.87500
 33
       97.32670
999
Building Shading:SHADER_1
  0
3DFACE
  8
Building Shading
 62
195
 10
   960327.18750
 20
  1946173.50000
 30
      101.02920
 11
   960327.18750
 21
  1946173.50000
 31
       41.02920
 12
   960329.62500
 22
  1946166.12500
 32
       41.02920
 13
   960329.62500
 23
  1946166.12500
 33
      101.02920
999
Building Shading:Mir-SHADER_1
  0
3DFACE
  8
Building Shading
 62
195
 10
   960329.62500
 20
  1946166.12500
 30
      101.02920
 11
   960329.62500
 21
  1946166.12500
 31
       41.02920
 12
   960327.18750
 22
  1946173.50000
 32
       41.02920
 13
   960327.18750
 23
  1946173.50000
 33
      101.02920
999
Building Shading:SHADER_2
  0
3DFACE
  8
Building Shading
 62
195
 10
   960282.87500
 20
  1946185.00000
 30
       99.42220
 11
   960282.87500
 21
  1946185.00000
 31
       41.42220
 12
   960291.68750
 22
  1946188.12500
 32
       41.42220
 13
   960291.68750
 23
  1946188.12500
 33
       99.42220
999
Building Shading:Mir-SHADER_2
  0
3DFACE
  8
Building Shading
 62
195
 10
   960291.68750
 20
  1946188.12500
 30
       99.42220
 11
   960291.68750
 21
  1946188.12500
 31
       41.42220
 12
   960282.87500
 22
  1946185.00000
 32
       41.42220
 13
   960282.87500
 23
  1946185.00000
 33
       99.42220
999
Building Shading:SHADER_3
  0
3DFACE
  8
Building Shading
 62
195
 10
   960263.93750
 20
  1946191.75000
 30
       99.42220
 11
   960263.93750
 21
  1946191.75000
 31
       41.42220
 12
   960268.37500
 22
  1946179.75000
 32
       41.42220
 13
   960268.37500
 23
  1946179.75000
 33
       99.42220
999
Building Shading:Mir-SHADER_3
  0
3DFACE
  8
Building Shading
 62
195
 10
   960268.37500
 20
  1946179.75000
 30
       99.42220
 11
   960268.37500
 21
  1946179.75000
 31
       41.42220
 12
   960263.93750
 22
  1946191.75000
 32
       41.42220
 13
   960263.93750
 23
  1946191.75000
 33
       99.42220
999
PERIM:PERIM:F0
  0
3DFACE
  8
PERIM
 62
 43
 10
   960255.74200
 20
  1946160.92730
 30
       52.36120
 11
   960255.74200
 21
  1946160.92730
 31
       49.25300
 12
   960254.62430
 22
  1946163.71140
 32
       49.25300
 13
   960254.62430
 23
  1946163.71140
 33
       52.36120
999
PERIM:PERIM:F0:W0
  0
3DFACE
  8
PERIM
 62
143
 10
   960255.70470
 20
  1946161.02010
 30
       51.43510
 11
   960255.70470
 21
  1946161.02010
 31
       50.10300
 12
   960254.66160
 22
  1946163.61860
 32
       50.10300
 13
   960254.66160
 23
  1946163.61860
 33
       51.43510
999
PERIM:PERIM:F1
  0
3DFACE
  8
PERIM
 62
 43
 10
   960252.04320
 20
  1946162.67520
 30
       52.36120
 11
   960252.04320
 21
  1946162.67520
 31
       49.25300
 12
   960253.16080
 22
  1946159.89110
 32
       49.25300
 13
   960253.16080
 23
  1946159.89110
 33
       52.36120
999
PERIM:PERIM:F2
  0
3DFACE
  8
PERIM
 62
 43
 10
   960254.62430
 20
  1946163.71140
 30
       52.36120
 11
   960254.62430
 21
  1946163.71140
 31
       49.25300
 12
   960252.04320
 22
  1946162.67520
 32
       49.25300
 13
   960252.04320
 23
  1946162.67520
 33
       52.36120
999
PERIM:PERIM:F3
  0
3DFACE
  8
PERIM
 62
 43
 10
   960253.16080
 20
  1946159.89110
 30
       52.36120
 11
   960253.16080
 21
  1946159.89110
 31
       49.25300
 12
   960255.74200
 22
  1946160.92730
 32
       49.25300
 13
   960255.74200
 23
  1946160.92730
 33
       52.36120
999
PERIM:PERIM:F4
  0
3DFACE
  8
PERIM
 62
  8
 10
   960255.74200
 20
  1946160.92730
 30
       49.25300
 11
   960253.35740
 21
  1946159.97010
 31
       49.25300
 12
   960252.23970
 22
  1946162.75410
 32
       49.25300
 13
   960254.62430
 23
  1946163.71140
 33
       49.25300
999
PERIM:PERIM:F5
  0
3DFACE
  8
PERIM
 62
  8
 10
   960253.35740
 20
  1946159.97010
 30
       49.25300
 11
   960253.16080
 21
  1946159.89110
 31
       49.25300
 12
   960252.04320
 22
  1946162.67520
 32
       49.25300
 13
   960252.23970
 23
  1946162.75410
 33
       49.25300
999
PERIM:PERIM:F6
  0
3DFACE
  8
PERIM
 62
 15
 10
   960255.74200
 20
  1946160.92730
 30
       52.36120
 11
   960254.62430
 21
  1946163.71140
 31
       52.36120
 12
   960252.23970
 22
  1946162.75410
 32
       52.36120
 13
   960253.35740
 23
  1946159.97010
 33
       52.36120
999
PERIM:PERIM:F7
  0
3DFACE
  8
PERIM
 62
 15
 10
   960253.35740
 20
  1946159.97010
 30
       52.36120
 11
   960252.23970
 21
  1946162.75410
 31
       52.36120
 12
   960252.04320
 22
  1946162.67520
 32
       52.36120
 13
   960253.16080
 23
  1946159.89110
 33
       52.36120
999
CORE:CORE:F0
  0
3DFACE
  8
CORE
 62
 43
 10
   960253.16080
 20
  1946159.89110
 30
       52.36120
 11
   960253.16080
 21
  1946159.89110
 31
       49.25300
 12
   960252.04320
 22
  1946162.67520
 32
       49.25300
 13
   960252.04320
 23
  1946162.67520
 33
       52.36120
999
CORE:CORE:F1
  0
3DFACE
  8
CORE
 62
 43
 10
   960250.49190
 20
  1946162.05240
 30
       52.36120
 11
   960250.49190
 21
  1946162.05240
 31
       49.25300
 12
   960251.60960
 22
  1946159.26840
 32
       49.25300
 13
   960251.60960
 23
  1946159.26840
 33
       52.36120
999
CORE:CORE:F2
  0
3DFACE
  8
CORE
 62
 43
 10
   960252.04320
 20
  1946162.67520
 30
       52.36120
 11
   960252.04320
 21
  1946162.67520
 31
       49.25300
 12
   960250.49190
 22
  1946162.05240
 32
       49.25300
 13
   960250.49190
 23
  1946162.05240
 33
       52.36120
999
CORE:CORE:F3
  0
3DFACE
  8
CORE
 62
 43
 10
   960251.60960
 20
  1946159.26840
 30
       52.36120
 11
   960251.60960
 21
  1946159.26840
 31
       49.25300
 12
   960253.16080
 22
  1946159.89110
 32
       49.25300
 13
   960253.16080
 23
  1946159.89110
 33
       52.36120
999
CORE:CORE:F4
  0
3DFACE
  8
CORE
 62
  8
 10
   960253.16080
 20
  1946159.89110
 30
       49.25300
 11
   960251.72770
 21
  1946159.31580
 31
       49.25300
 12
   960250.61010
 22
  1946162.09990
 32
       49.25300
 13
   960252.04320
 23
  1946162.67520
 33
       49.25300
999
CORE:CORE:F5
  0
3DFACE
  8
CORE
 62
  8
 10
   960251.72770
 20
  1946159.31580
 30
       49.25300
 11
   960251.60960
 21
  1946159.26840
 31
       49.25300
 12
   960250.49190
 22
  1946162.05240
 32
       49.25300
 13
   960250.61010
 23
  1946162.09990
 33
       49.25300
999
CORE:CORE:F6
  0
3DFACE
  8
CORE
 62
 15
 10
   960253.16080
 20
  1946159.89110
 30
       52.36120
 11
   960252.04320
 21
  1946162.67520
 31
       52.36120
 12
   960250.61010
 22
  1946162.09990
 32
       52.36120
 13
   960251.72770
 23
  1946159.31580
 33
       52.36120
999
CORE:CORE:F7
  0
3DFACE
  8
CORE
 62
 15
 10
   960251.72770
 20
  1946159.31580
 30
       52.36120
 11
   960250.61010
 21
  1946162.09990
 31
       52.36120
 12
   960250.49190
 22
  1946162.05240
 32
       52.36120
 13
   960251.60960
 23
  1946159.26840
 33
       52.36120
  0
ENDSEC
  0
EOF
