  0
SECTION
  2
ENTITIES
999
DXF created from EnergyPlus
999
Program Version,EnergyPlus, Version 8.4.0-09f5359d8a, YMD=2023.08.02 14:39
999
Polygon Action,TRIANGULATE3DFACE
999
Color Scheme,Default
999
Text - True North
  0
TEXT
  8
1
  6
Continuous
 62
  3
 10
    99988.00000
 20
   100002.00000
 30
        0.10000
 40
 .25
  1
True North
 41
 0.0
  7
MONOTXT
210
0.0
220
0.0
230
1.0
999
Text - Building Title
  0
TEXT
  8
1
  6
Continuous
 62
  3
 10
    99985.00000
 20
    99998.00000
 30
        0.10000
 40
 .4
  1
Building - Building
 41
 0.0
  7
MONOTXT
210
0.0
220
0.0
230
1.0
999
North Arrow Stem
  0
3DFACE
  8
1
 62
  3
 10
    99989.00000
 20
   100002.00000
 30
        0.10000
 11
    99989.00000
 21
   100002.00000
 31
        0.00000
 12
    99989.00000
 22
    99999.00000
 32
        0.00000
 13
    99989.00000
 23
    99999.00000
 33
        0.10000
999
North Arrow Head 1
  0
3DFACE
  8
1
 62
  3
 10
    99989.00000
 20
   100002.00000
 30
        0.10000
 11
    99989.00000
 21
   100002.00000
 31
        0.00000
 12
    99988.50000
 22
   100001.13398
 32
        0.00000
 13
    99988.50000
 23
   100001.13398
 33
        0.10000
999
North Arrow Head 2
  0
3DFACE
  8
1
 62
  3
 10
    99989.00000
 20
   100002.00000
 30
        0.10000
 11
    99989.00000
 21
   100002.00000
 31
        0.00000
 12
    99989.50000
 22
   100001.13398
 32
        0.00000
 13
    99989.50000
 23
   100001.13398
 33
        0.10000
999
North Arrow Side 1
  0
3DFACE
  8
1
 62
  3
 10
    99988.50000
 20
   100003.50000
 30
        0.10000
 11
    99988.50000
 21
   100003.50000
 31
        0.00000
 12
    99988.50000
 22
   100002.50000
 32
        0.00000
 13
    99988.50000
 23
   100002.50000
 33
        0.10000
999
North Arrow Side 2
  0
3DFACE
  8
1
 62
  3
 10
    99988.50000
 20
   100003.50000
 30
        0.10000
 11
    99988.50000
 21
   100003.50000
 31
        0.00000
 12
    99989.50000
 22
   100002.50000
 32
        0.00000
 13
    99989.50000
 23
   100002.50000
 33
        0.10000
999
North Arrow Side 3
  0
3DFACE
  8
1
 62
  3
 10
    99989.50000
 20
   100003.50000
 30
        0.10000
 11
    99989.50000
 21
   100003.50000
 31
        0.00000
 12
    99989.50000
 22
   100002.50000
 32
        0.00000
 13
    99989.50000
 23
   100002.50000
 33
        0.10000
999
Zone Names
999
Zone=1:PERIM
999
Zone=2:CORE
999
Building Shading:SHADER_0
  0
3DFACE
  8
Building Shading
 62
195
 10
   959812.50000
 20
  1946059.12500
 30
       54.46240
 11
   959812.50000
 21
  1946059.12500
 31
       46.46240
 12
   959817.25000
 22
  1946046.25000
 32
       46.46240
 13
   959817.25000
 23
  1946046.25000
 33
       54.46240
999
Building Shading:Mir-SHADER_0
  0
3DFACE
  8
Building Shading
 62
195
 10
   959817.25000
 20
  1946046.25000
 30
       54.46240
 11
   959817.25000
 21
  1946046.25000
 31
       46.46240
 12
   959812.50000
 22
  1946059.12500
 32
       46.46240
 13
   959812.50000
 23
  1946059.12500
 33
       54.46240
999
Building Shading:SHADER_1
  0
3DFACE
  8
Building Shading
 62
195
 10
   959793.37500
 20
  1946035.87500
 30
       65.46500
 11
   959793.37500
 21
  1946035.87500
 31
       46.46500
 12
   959809.00000
 22
  1946041.75000
 32
       46.46500
 13
   959809.00000
 23
  1946041.75000
 33
       65.46500
999
Building Shading:Mir-SHADER_1
  0
3DFACE
  8
Building Shading
 62
195
 10
   959809.00000
 20
  1946041.75000
 30
       65.46500
 11
   959809.00000
 21
  1946041.75000
 31
       46.46500
 12
   959793.37500
 22
  1946035.87500
 32
       46.46500
 13
   959793.37500
 23
  1946035.87500
 33
       65.46500
999
Building Shading:SHADER_2
  0
3DFACE
  8
Building Shading
 62
195
 10
   959777.50000
 20
  1946029.87500
 30
       65.68890
 11
   959777.50000
 21
  1946029.87500
 31
       46.68890
 12
   959789.18750
 22
  1946034.12500
 32
       46.68890
 13
   959789.18750
 23
  1946034.12500
 33
       65.68890
999
Building Shading:Mir-SHADER_2
  0
3DFACE
  8
Building Shading
 62
195
 10
   959789.18750
 20
  1946034.12500
 30
       65.68890
 11
   959789.18750
 21
  1946034.12500
 31
       46.68890
 12
   959777.50000
 22
  1946029.87500
 32
       46.68890
 13
   959777.50000
 23
  1946029.87500
 33
       65.68890
999
PERIM:PERIM:F0
  0
3DFACE
  8
PERIM
 62
 43
 10
   959810.84130
 20
  1946035.02710
 30
       47.99540
 11
   959810.84130
 21
  1946035.02710
 31
       44.88710
 12
   959808.01500
 22
  1946034.02090
 32
       44.88710
 13
   959808.01500
 23
  1946034.02090
 33
       47.99540
999
PERIM:PERIM:F0:W0
  0
3DFACE
  8
PERIM
 62
143
 10
   959810.74710
 20
  1946034.99360
 30
       47.06920
 11
   959810.74710
 21
  1946034.99360
 31
       45.73710
 12
   959808.10930
 22
  1946034.05440
 32
       45.73710
 13
   959808.10930
 23
  1946034.05440
 33
       47.06920
999
PERIM:PERIM:F1
  0
3DFACE
  8
PERIM
 62
 43
 10
   959808.94790
 20
  1946031.40060
 30
       47.99540
 11
   959808.94790
 21
  1946031.40060
 31
       44.88710
 12
   959811.77420
 22
  1946032.40680
 32
       44.88710
 13
   959811.77420
 23
  1946032.40680
 33
       47.99540
999
PERIM:PERIM:F2
  0
3DFACE
  8
PERIM
 62
 43
 10
   959808.01500
 20
  1946034.02090
 30
       47.99540
 11
   959808.01500
 21
  1946034.02090
 31
       44.88710
 12
   959808.94790
 22
  1946031.40060
 32
       44.88710
 13
   959808.94790
 23
  1946031.40060
 33
       47.99540
999
PERIM:PERIM:F3
  0
3DFACE
  8
PERIM
 62
 43
 10
   959811.77420
 20
  1946032.40680
 30
       47.99540
 11
   959811.77420
 21
  1946032.40680
 31
       44.88710
 12
   959810.84130
 22
  1946035.02710
 32
       44.88710
 13
   959810.84130
 23
  1946035.02710
 33
       47.99540
999
PERIM:PERIM:F4
  0
3DFACE
  8
PERIM
 62
  8
 10
   959810.84130
 20
  1946035.02710
 30
       44.88710
 11
   959811.70310
 21
  1946032.60640
 31
       44.88710
 12
   959808.87690
 22
  1946031.60020
 32
       44.88710
 13
   959808.01500
 23
  1946034.02090
 33
       44.88710
999
PERIM:PERIM:F5
  0
3DFACE
  8
PERIM
 62
  8
 10
   959811.70310
 20
  1946032.60640
 30
       44.88710
 11
   959811.77420
 21
  1946032.40680
 31
       44.88710
 12
   959808.94790
 22
  1946031.40060
 32
       44.88710
 13
   959808.87690
 23
  1946031.60020
 33
       44.88710
999
PERIM:PERIM:F6
  0
3DFACE
  8
PERIM
 62
 15
 10
   959810.84130
 20
  1946035.02710
 30
       47.99540
 11
   959808.01500
 21
  1946034.02090
 31
       47.99540
 12
   959808.87690
 22
  1946031.60020
 32
       47.99540
 13
   959811.70310
 23
  1946032.60640
 33
       47.99540
999
PERIM:PERIM:F7
  0
3DFACE
  8
PERIM
 62
 15
 10
   959811.70310
 20
  1946032.60640
 30
       47.99540
 11
   959808.87690
 21
  1946031.60020
 31
       47.99540
 12
   959808.94790
 22
  1946031.40060
 32
       47.99540
 13
   959811.77420
 23
  1946032.40680
 33
       47.99540
999
CORE:CORE:F0
  0
3DFACE
  8
CORE
 62
 43
 10
   959811.77420
 20
  1946032.40680
 30
       47.99540
 11
   959811.77420
 21
  1946032.40680
 31
       44.88710
 12
   959808.94790
 22
  1946031.40060
 32
       44.88710
 13
   959808.94790
 23
  1946031.40060
 33
       47.99540
999
CORE:CORE:F1
  0
3DFACE
  8
CORE
 62
 43
 10
   959809.50860
 20
  1946029.82590
 30
       47.99540
 11
   959809.50860
 21
  1946029.82590
 31
       44.88710
 12
   959812.33480
 22
  1946030.83210
 32
       44.88710
 13
   959812.33480
 23
  1946030.83210
 33
       47.99540
999
CORE:CORE:F2
  0
3DFACE
  8
CORE
 62
 43
 10
   959808.94790
 20
  1946031.40060
 30
       47.99540
 11
   959808.94790
 21
  1946031.40060
 31
       44.88710
 12
   959809.50860
 22
  1946029.82590
 32
       44.88710
 13
   959809.50860
 23
  1946029.82590
 33
       47.99540
999
CORE:CORE:F3
  0
3DFACE
  8
CORE
 62
 43
 10
   959812.33480
 20
  1946030.83210
 30
       47.99540
 11
   959812.33480
 21
  1946030.83210
 31
       44.88710
 12
   959811.77420
 22
  1946032.40680
 32
       44.88710
 13
   959811.77420
 23
  1946032.40680
 33
       47.99540
999
CORE:CORE:F4
  0
3DFACE
  8
CORE
 62
  8
 10
   959811.77420
 20
  1946032.40680
 30
       44.88710
 11
   959812.29210
 21
  1946030.95200
 31
       44.88710
 12
   959809.46590
 22
  1946029.94580
 32
       44.88710
 13
   959808.94790
 23
  1946031.40060
 33
       44.88710
999
CORE:CORE:F5
  0
3DFACE
  8
CORE
 62
  8
 10
   959812.29210
 20
  1946030.95200
 30
       44.88710
 11
   959812.33480
 21
  1946030.83210
 31
       44.88710
 12
   959809.50860
 22
  1946029.82590
 32
       44.88710
 13
   959809.46590
 23
  1946029.94580
 33
       44.88710
999
CORE:CORE:F6
  0
3DFACE
  8
CORE
 62
 15
 10
   959811.77420
 20
  1946032.40680
 30
       47.99540
 11
   959808.94790
 21
  1946031.40060
 31
       47.99540
 12
   959809.46590
 22
  1946029.94580
 32
       47.99540
 13
   959812.29210
 23
  1946030.95200
 33
       47.99540
999
CORE:CORE:F7
  0
3DFACE
  8
CORE
 62
 15
 10
   959812.29210
 20
  1946030.95200
 30
       47.99540
 11
   959809.46590
 21
  1946029.94580
 31
       47.99540
 12
   959809.50860
 22
  1946029.82590
 32
       47.99540
 13
   959812.33480
 23
  1946030.83210
 33
       47.99540
  0
ENDSEC
  0
EOF
