  0
SECTION
  2
ENTITIES
999
DXF created from EnergyPlus
999
Program Version,EnergyPlus, Version 8.4.0-09f5359d8a, YMD=2023.08.02 14:39
999
Polygon Action,TRIANGULATE3DFACE
999
Color Scheme,Default
999
Text - True North
  0
TEXT
  8
1
  6
Continuous
 62
  3
 10
    99988.00000
 20
   100002.00000
 30
        0.10000
 40
 .25
  1
True North
 41
 0.0
  7
MONOTXT
210
0.0
220
0.0
230
1.0
999
Text - Building Title
  0
TEXT
  8
1
  6
Continuous
 62
  3
 10
    99985.00000
 20
    99998.00000
 30
        0.10000
 40
 .4
  1
Building - Building
 41
 0.0
  7
MONOTXT
210
0.0
220
0.0
230
1.0
999
North Arrow Stem
  0
3DFACE
  8
1
 62
  3
 10
    99989.00000
 20
   100002.00000
 30
        0.10000
 11
    99989.00000
 21
   100002.00000
 31
        0.00000
 12
    99989.00000
 22
    99999.00000
 32
        0.00000
 13
    99989.00000
 23
    99999.00000
 33
        0.10000
999
North Arrow Head 1
  0
3DFACE
  8
1
 62
  3
 10
    99989.00000
 20
   100002.00000
 30
        0.10000
 11
    99989.00000
 21
   100002.00000
 31
        0.00000
 12
    99988.50000
 22
   100001.13398
 32
        0.00000
 13
    99988.50000
 23
   100001.13398
 33
        0.10000
999
North Arrow Head 2
  0
3DFACE
  8
1
 62
  3
 10
    99989.00000
 20
   100002.00000
 30
        0.10000
 11
    99989.00000
 21
   100002.00000
 31
        0.00000
 12
    99989.50000
 22
   100001.13398
 32
        0.00000
 13
    99989.50000
 23
   100001.13398
 33
        0.10000
999
North Arrow Side 1
  0
3DFACE
  8
1
 62
  3
 10
    99988.50000
 20
   100003.50000
 30
        0.10000
 11
    99988.50000
 21
   100003.50000
 31
        0.00000
 12
    99988.50000
 22
   100002.50000
 32
        0.00000
 13
    99988.50000
 23
   100002.50000
 33
        0.10000
999
North Arrow Side 2
  0
3DFACE
  8
1
 62
  3
 10
    99988.50000
 20
   100003.50000
 30
        0.10000
 11
    99988.50000
 21
   100003.50000
 31
        0.00000
 12
    99989.50000
 22
   100002.50000
 32
        0.00000
 13
    99989.50000
 23
   100002.50000
 33
        0.10000
999
North Arrow Side 3
  0
3DFACE
  8
1
 62
  3
 10
    99989.50000
 20
   100003.50000
 30
        0.10000
 11
    99989.50000
 21
   100003.50000
 31
        0.00000
 12
    99989.50000
 22
   100002.50000
 32
        0.00000
 13
    99989.50000
 23
   100002.50000
 33
        0.10000
999
Zone Names
999
Zone=1:PERIM
999
Zone=2:CORE
999
Building Shading:SHADER_0
  0
3DFACE
  8
Building Shading
 62
195
 10
   959934.68750
 20
  1946290.37500
 30
       96.72980
 11
   959934.68750
 21
  1946290.37500
 31
       49.72980
 12
   959934.93750
 22
  1946289.87500
 32
       49.72980
 13
   959934.93750
 23
  1946289.87500
 33
       96.72980
999
Building Shading:Mir-SHADER_0
  0
3DFACE
  8
Building Shading
 62
195
 10
   959934.93750
 20
  1946289.87500
 30
       96.72980
 11
   959934.93750
 21
  1946289.87500
 31
       49.72980
 12
   959934.68750
 22
  1946290.37500
 32
       49.72980
 13
   959934.68750
 23
  1946290.37500
 33
       96.72980
999
Building Shading:SHADER_1
  0
3DFACE
  8
Building Shading
 62
195
 10
   959866.87500
 20
  1946265.50000
 30
       98.15150
 11
   959866.87500
 21
  1946265.50000
 31
       51.15140
 12
   959871.43750
 22
  1946267.25000
 32
       51.15140
 13
   959871.43750
 23
  1946267.25000
 33
       98.15150
999
Building Shading:Mir-SHADER_1
  0
3DFACE
  8
Building Shading
 62
195
 10
   959871.43750
 20
  1946267.25000
 30
       98.15150
 11
   959871.43750
 21
  1946267.25000
 31
       51.15140
 12
   959866.87500
 22
  1946265.50000
 32
       51.15140
 13
   959866.87500
 23
  1946265.50000
 33
       98.15150
999
Building Shading:SHADER_2
  0
3DFACE
  8
Building Shading
 62
195
 10
   959790.18750
 20
  1946237.62500
 30
       98.60770
 11
   959790.18750
 21
  1946237.62500
 31
       52.60770
 12
   959840.62500
 22
  1946256.37500
 32
       52.60770
 13
   959840.62500
 23
  1946256.37500
 33
       98.60770
999
Building Shading:Mir-SHADER_2
  0
3DFACE
  8
Building Shading
 62
195
 10
   959840.62500
 20
  1946256.37500
 30
       98.60770
 11
   959840.62500
 21
  1946256.37500
 31
       52.60770
 12
   959790.18750
 22
  1946237.62500
 32
       52.60770
 13
   959790.18750
 23
  1946237.62500
 33
       98.60770
999
Building Shading:SHADER_3
  0
3DFACE
  8
Building Shading
 62
195
 10
   959755.56250
 20
  1946226.75000
 30
       99.79500
 11
   959755.56250
 21
  1946226.75000
 31
       53.79500
 12
   959763.75000
 22
  1946229.62500
 32
       53.79500
 13
   959763.75000
 23
  1946229.62500
 33
       99.79500
999
Building Shading:Mir-SHADER_3
  0
3DFACE
  8
Building Shading
 62
195
 10
   959763.75000
 20
  1946229.62500
 30
       99.79500
 11
   959763.75000
 21
  1946229.62500
 31
       53.79500
 12
   959755.56250
 22
  1946226.75000
 32
       53.79500
 13
   959755.56250
 23
  1946226.75000
 33
       99.79500
999
PERIM:PERIM:F0
  0
3DFACE
  8
PERIM
 62
 43
 10
   959856.26190
 20
  1946235.35780
 30
       63.69780
 11
   959856.26190
 21
  1946235.35780
 31
       60.58960
 12
   959853.43760
 22
  1946234.34610
 32
       60.58960
 13
   959853.43760
 23
  1946234.34610
 33
       63.69780
999
PERIM:PERIM:F0:W0
  0
3DFACE
  8
PERIM
 62
143
 10
   959856.16780
 20
  1946235.32410
 30
       62.77170
 11
   959856.16780
 21
  1946235.32410
 31
       61.43960
 12
   959853.53180
 22
  1946234.37990
 32
       61.43960
 13
   959853.53180
 23
  1946234.37990
 33
       62.77170
999
PERIM:PERIM:F1
  0
3DFACE
  8
PERIM
 62
 43
 10
   959854.37560
 20
  1946231.72770
 30
       63.69780
 11
   959854.37560
 21
  1946231.72770
 31
       60.58960
 12
   959857.19980
 22
  1946232.73930
 32
       60.58960
 13
   959857.19980
 23
  1946232.73930
 33
       63.69780
999
PERIM:PERIM:F2
  0
3DFACE
  8
PERIM
 62
 43
 10
   959853.43760
 20
  1946234.34610
 30
       63.69780
 11
   959853.43760
 21
  1946234.34610
 31
       60.58960
 12
   959854.37560
 22
  1946231.72770
 32
       60.58960
 13
   959854.37560
 23
  1946231.72770
 33
       63.69780
999
PERIM:PERIM:F3
  0
3DFACE
  8
PERIM
 62
 43
 10
   959857.19980
 20
  1946232.73930
 30
       63.69780
 11
   959857.19980
 21
  1946232.73930
 31
       60.58960
 12
   959856.26190
 22
  1946235.35780
 32
       60.58960
 13
   959856.26190
 23
  1946235.35780
 33
       63.69780
999
PERIM:PERIM:F4
  0
3DFACE
  8
PERIM
 62
  8
 10
   959856.26190
 20
  1946235.35780
 30
       60.58960
 11
   959857.12840
 21
  1946232.93870
 31
       60.58960
 12
   959854.30410
 22
  1946231.92710
 32
       60.58960
 13
   959853.43760
 23
  1946234.34610
 33
       60.58960
999
PERIM:PERIM:F5
  0
3DFACE
  8
PERIM
 62
  8
 10
   959857.12840
 20
  1946232.93870
 30
       60.58960
 11
   959857.19980
 21
  1946232.73930
 31
       60.58960
 12
   959854.37560
 22
  1946231.72770
 32
       60.58960
 13
   959854.30410
 23
  1946231.92710
 33
       60.58960
999
PERIM:PERIM:F6
  0
3DFACE
  8
PERIM
 62
 15
 10
   959856.26190
 20
  1946235.35780
 30
       63.69780
 11
   959853.43760
 21
  1946234.34610
 31
       63.69780
 12
   959854.30410
 22
  1946231.92710
 32
       63.69780
 13
   959857.12840
 23
  1946232.93870
 33
       63.69780
999
PERIM:PERIM:F7
  0
3DFACE
  8
PERIM
 62
 15
 10
   959857.12840
 20
  1946232.93870
 30
       63.69780
 11
   959854.30410
 21
  1946231.92710
 31
       63.69780
 12
   959854.37560
 22
  1946231.72770
 32
       63.69780
 13
   959857.19980
 23
  1946232.73930
 33
       63.69780
999
CORE:CORE:F0
  0
3DFACE
  8
CORE
 62
 43
 10
   959857.19980
 20
  1946232.73930
 30
       63.69780
 11
   959857.19980
 21
  1946232.73930
 31
       60.58960
 12
   959854.37560
 22
  1946231.72770
 32
       60.58960
 13
   959854.37560
 23
  1946231.72770
 33
       63.69780
999
CORE:CORE:F1
  0
3DFACE
  8
CORE
 62
 43
 10
   959854.93920
 20
  1946230.15400
 30
       63.69780
 11
   959854.93920
 21
  1946230.15400
 31
       60.58960
 12
   959857.76350
 22
  1946231.16560
 32
       60.58960
 13
   959857.76350
 23
  1946231.16560
 33
       63.69780
999
CORE:CORE:F2
  0
3DFACE
  8
CORE
 62
 43
 10
   959854.37560
 20
  1946231.72770
 30
       63.69780
 11
   959854.37560
 21
  1946231.72770
 31
       60.58960
 12
   959854.93920
 22
  1946230.15400
 32
       60.58960
 13
   959854.93920
 23
  1946230.15400
 33
       63.69780
999
CORE:CORE:F3
  0
3DFACE
  8
CORE
 62
 43
 10
   959857.76350
 20
  1946231.16560
 30
       63.69780
 11
   959857.76350
 21
  1946231.16560
 31
       60.58960
 12
   959857.19980
 22
  1946232.73930
 32
       60.58960
 13
   959857.19980
 23
  1946232.73930
 33
       63.69780
999
CORE:CORE:F4
  0
3DFACE
  8
CORE
 62
  8
 10
   959857.19980
 20
  1946232.73930
 30
       60.58960
 11
   959857.72060
 21
  1946231.28550
 31
       60.58960
 12
   959854.89630
 22
  1946230.27380
 32
       60.58960
 13
   959854.37560
 23
  1946231.72770
 33
       60.58960
999
CORE:CORE:F5
  0
3DFACE
  8
CORE
 62
  8
 10
   959857.72060
 20
  1946231.28550
 30
       60.58960
 11
   959857.76350
 21
  1946231.16560
 31
       60.58960
 12
   959854.93920
 22
  1946230.15400
 32
       60.58960
 13
   959854.89630
 23
  1946230.27380
 33
       60.58960
999
CORE:CORE:F6
  0
3DFACE
  8
CORE
 62
 15
 10
   959857.19980
 20
  1946232.73930
 30
       63.69780
 11
   959854.37560
 21
  1946231.72770
 31
       63.69780
 12
   959854.89630
 22
  1946230.27380
 32
       63.69780
 13
   959857.72060
 23
  1946231.28550
 33
       63.69780
999
CORE:CORE:F7
  0
3DFACE
  8
CORE
 62
 15
 10
   959857.72060
 20
  1946231.28550
 30
       63.69780
 11
   959854.89630
 21
  1946230.27380
 31
       63.69780
 12
   959854.93920
 22
  1946230.15400
 32
       63.69780
 13
   959857.76350
 23
  1946231.16560
 33
       63.69780
  0
ENDSEC
  0
EOF
