  0
SECTION
  2
ENTITIES
999
DXF created from EnergyPlus
999
Program Version,EnergyPlus, Version 8.4.0-09f5359d8a, YMD=2023.08.02 14:39
999
Polygon Action,TRIANGULATE3DFACE
999
Color Scheme,Default
999
Text - True North
  0
TEXT
  8
1
  6
Continuous
 62
  3
 10
    99988.00000
 20
   100002.00000
 30
        0.10000
 40
 .25
  1
True North
 41
 0.0
  7
MONOTXT
210
0.0
220
0.0
230
1.0
999
Text - Building Title
  0
TEXT
  8
1
  6
Continuous
 62
  3
 10
    99985.00000
 20
    99998.00000
 30
        0.10000
 40
 .4
  1
Building - Building
 41
 0.0
  7
MONOTXT
210
0.0
220
0.0
230
1.0
999
North Arrow Stem
  0
3DFACE
  8
1
 62
  3
 10
    99989.00000
 20
   100002.00000
 30
        0.10000
 11
    99989.00000
 21
   100002.00000
 31
        0.00000
 12
    99989.00000
 22
    99999.00000
 32
        0.00000
 13
    99989.00000
 23
    99999.00000
 33
        0.10000
999
North Arrow Head 1
  0
3DFACE
  8
1
 62
  3
 10
    99989.00000
 20
   100002.00000
 30
        0.10000
 11
    99989.00000
 21
   100002.00000
 31
        0.00000
 12
    99988.50000
 22
   100001.13398
 32
        0.00000
 13
    99988.50000
 23
   100001.13398
 33
        0.10000
999
North Arrow Head 2
  0
3DFACE
  8
1
 62
  3
 10
    99989.00000
 20
   100002.00000
 30
        0.10000
 11
    99989.00000
 21
   100002.00000
 31
        0.00000
 12
    99989.50000
 22
   100001.13398
 32
        0.00000
 13
    99989.50000
 23
   100001.13398
 33
        0.10000
999
North Arrow Side 1
  0
3DFACE
  8
1
 62
  3
 10
    99988.50000
 20
   100003.50000
 30
        0.10000
 11
    99988.50000
 21
   100003.50000
 31
        0.00000
 12
    99988.50000
 22
   100002.50000
 32
        0.00000
 13
    99988.50000
 23
   100002.50000
 33
        0.10000
999
North Arrow Side 2
  0
3DFACE
  8
1
 62
  3
 10
    99988.50000
 20
   100003.50000
 30
        0.10000
 11
    99988.50000
 21
   100003.50000
 31
        0.00000
 12
    99989.50000
 22
   100002.50000
 32
        0.00000
 13
    99989.50000
 23
   100002.50000
 33
        0.10000
999
North Arrow Side 3
  0
3DFACE
  8
1
 62
  3
 10
    99989.50000
 20
   100003.50000
 30
        0.10000
 11
    99989.50000
 21
   100003.50000
 31
        0.00000
 12
    99989.50000
 22
   100002.50000
 32
        0.00000
 13
    99989.50000
 23
   100002.50000
 33
        0.10000
999
Zone Names
999
Zone=1:PERIM
999
Zone=2:CORE
999
Building Shading:SHADER_0
  0
3DFACE
  8
Building Shading
 62
195
 10
   960492.56250
 20
  1946408.75000
 30
       55.47690
 11
   960492.56250
 21
  1946408.75000
 31
       47.47690
 12
   960509.43750
 22
  1946401.62500
 32
       47.47690
 13
   960509.43750
 23
  1946401.62500
 33
       55.47690
999
Building Shading:Mir-SHADER_0
  0
3DFACE
  8
Building Shading
 62
195
 10
   960509.43750
 20
  1946401.62500
 30
       55.47690
 11
   960509.43750
 21
  1946401.62500
 31
       47.47690
 12
   960492.56250
 22
  1946408.75000
 32
       47.47690
 13
   960492.56250
 23
  1946408.75000
 33
       55.47690
999
Building Shading:SHADER_1
  0
3DFACE
  8
Building Shading
 62
195
 10
   960419.00000
 20
  1946425.75000
 30
       79.61860
 11
   960419.00000
 21
  1946425.75000
 31
       43.61860
 12
   960441.93750
 22
  1946435.37500
 32
       43.61860
 13
   960441.93750
 23
  1946435.37500
 33
       79.61860
999
Building Shading:Mir-SHADER_1
  0
3DFACE
  8
Building Shading
 62
195
 10
   960441.93750
 20
  1946435.37500
 30
       79.61860
 11
   960441.93750
 21
  1946435.37500
 31
       43.61860
 12
   960419.00000
 22
  1946425.75000
 32
       43.61860
 13
   960419.00000
 23
  1946425.75000
 33
       79.61860
999
PERIM:PERIM:F0
  0
3DFACE
  8
PERIM
 62
 43
 10
   960472.40090
 20
  1946394.73920
 30
       49.58890
 11
   960472.40090
 21
  1946394.73920
 31
       46.48070
 12
   960469.63190
 22
  1946395.89360
 32
       46.48070
 13
   960469.63190
 23
  1946395.89360
 33
       49.58890
999
PERIM:PERIM:F0:W0
  0
3DFACE
  8
PERIM
 62
143
 10
   960472.30860
 20
  1946394.77770
 30
       48.66280
 11
   960472.30860
 21
  1946394.77770
 31
       47.33070
 12
   960469.72420
 22
  1946395.85510
 32
       47.33070
 13
   960469.72420
 23
  1946395.85510
 33
       48.66280
999
PERIM:PERIM:F1
  0
3DFACE
  8
PERIM
 62
 43
 10
   960468.56160
 20
  1946393.32640
 30
       49.58890
 11
   960468.56160
 21
  1946393.32640
 31
       46.48070
 12
   960471.33060
 22
  1946392.17200
 32
       46.48070
 13
   960471.33060
 23
  1946392.17200
 33
       49.58890
999
PERIM:PERIM:F2
  0
3DFACE
  8
PERIM
 62
 43
 10
   960469.63190
 20
  1946395.89360
 30
       49.58890
 11
   960469.63190
 21
  1946395.89360
 31
       46.48070
 12
   960468.56160
 22
  1946393.32640
 32
       46.48070
 13
   960468.56160
 23
  1946393.32640
 33
       49.58890
999
PERIM:PERIM:F3
  0
3DFACE
  8
PERIM
 62
 43
 10
   960471.33060
 20
  1946392.17200
 30
       49.58890
 11
   960471.33060
 21
  1946392.17200
 31
       46.48070
 12
   960472.40090
 22
  1946394.73920
 32
       46.48070
 13
   960472.40090
 23
  1946394.73920
 33
       49.58890
999
PERIM:PERIM:F4
  0
3DFACE
  8
PERIM
 62
  8
 10
   960472.40090
 20
  1946394.73920
 30
       46.48070
 11
   960471.41210
 21
  1946392.36750
 31
       46.48070
 12
   960468.64310
 22
  1946393.52190
 32
       46.48070
 13
   960469.63190
 23
  1946395.89360
 33
       46.48070
999
PERIM:PERIM:F5
  0
3DFACE
  8
PERIM
 62
  8
 10
   960471.41210
 20
  1946392.36750
 30
       46.48070
 11
   960471.33060
 21
  1946392.17200
 31
       46.48070
 12
   960468.56160
 22
  1946393.32640
 32
       46.48070
 13
   960468.64310
 23
  1946393.52190
 33
       46.48070
999
PERIM:PERIM:F6
  0
3DFACE
  8
PERIM
 62
 15
 10
   960472.40090
 20
  1946394.73920
 30
       49.58890
 11
   960469.63190
 21
  1946395.89360
 31
       49.58890
 12
   960468.64310
 22
  1946393.52190
 32
       49.58890
 13
   960471.41210
 23
  1946392.36750
 33
       49.58890
999
PERIM:PERIM:F7
  0
3DFACE
  8
PERIM
 62
 15
 10
   960471.41210
 20
  1946392.36750
 30
       49.58890
 11
   960468.64310
 21
  1946393.52190
 31
       49.58890
 12
   960468.56160
 22
  1946393.32640
 32
       49.58890
 13
   960471.33060
 23
  1946392.17200
 33
       49.58890
999
CORE:CORE:F0
  0
3DFACE
  8
CORE
 62
 43
 10
   960471.33060
 20
  1946392.17200
 30
       49.58890
 11
   960471.33060
 21
  1946392.17200
 31
       46.48070
 12
   960468.56160
 22
  1946393.32640
 32
       46.48070
 13
   960468.56160
 23
  1946393.32640
 33
       49.58890
999
CORE:CORE:F1
  0
3DFACE
  8
CORE
 62
 43
 10
   960467.91840
 20
  1946391.78350
 30
       49.58890
 11
   960467.91840
 21
  1946391.78350
 31
       46.48070
 12
   960470.68740
 22
  1946390.62910
 32
       46.48070
 13
   960470.68740
 23
  1946390.62910
 33
       49.58890
999
CORE:CORE:F2
  0
3DFACE
  8
CORE
 62
 43
 10
   960468.56160
 20
  1946393.32640
 30
       49.58890
 11
   960468.56160
 21
  1946393.32640
 31
       46.48070
 12
   960467.91840
 22
  1946391.78350
 32
       46.48070
 13
   960467.91840
 23
  1946391.78350
 33
       49.58890
999
CORE:CORE:F3
  0
3DFACE
  8
CORE
 62
 43
 10
   960470.68740
 20
  1946390.62910
 30
       49.58890
 11
   960470.68740
 21
  1946390.62910
 31
       46.48070
 12
   960471.33060
 22
  1946392.17200
 32
       46.48070
 13
   960471.33060
 23
  1946392.17200
 33
       49.58890
999
CORE:CORE:F4
  0
3DFACE
  8
CORE
 62
  8
 10
   960471.33060
 20
  1946392.17200
 30
       46.48070
 11
   960470.73640
 21
  1946390.74660
 31
       46.48070
 12
   960467.96740
 22
  1946391.90100
 32
       46.48070
 13
   960468.56160
 23
  1946393.32640
 33
       46.48070
999
CORE:CORE:F5
  0
3DFACE
  8
CORE
 62
  8
 10
   960470.73640
 20
  1946390.74660
 30
       46.48070
 11
   960470.68740
 21
  1946390.62910
 31
       46.48070
 12
   960467.91840
 22
  1946391.78350
 32
       46.48070
 13
   960467.96740
 23
  1946391.90100
 33
       46.48070
999
CORE:CORE:F6
  0
3DFACE
  8
CORE
 62
 15
 10
   960471.33060
 20
  1946392.17200
 30
       49.58890
 11
   960468.56160
 21
  1946393.32640
 31
       49.58890
 12
   960467.96740
 22
  1946391.90100
 32
       49.58890
 13
   960470.73640
 23
  1946390.74660
 33
       49.58890
999
CORE:CORE:F7
  0
3DFACE
  8
CORE
 62
 15
 10
   960470.73640
 20
  1946390.74660
 30
       49.58890
 11
   960467.96740
 21
  1946391.90100
 31
       49.58890
 12
   960467.91840
 22
  1946391.78350
 32
       49.58890
 13
   960470.68740
 23
  1946390.62910
 33
       49.58890
  0
ENDSEC
  0
EOF
