! Program Version,EnergyPlus, Version 8.4.0-09f5359d8a, YMD=2023.08.02 14:39,IDD_Version 8.4.0
! Output:Meter Objects (applicable to this run)
Output:Meter,Electricity:Facility,hourly; !- [J]
Output:Meter:Cumulative,Electricity:Facility,hourly; !- [J]
Output:Meter,Electricity:Building,hourly; !- [J]
Output:Meter:Cumulative,Electricity:Building,hourly; !- [J]
Output:Meter,Electricity:Zone:PERIM,hourly; !- [J]
Output:Meter:Cumulative,Electricity:Zone:PERIM,hourly; !- [J]
Output:Meter,InteriorLights:Electricity,hourly; !- [J]
Output:Meter:Cumulative,InteriorLights:Electricity,hourly; !- [J]
Output:Meter,InteriorLights:Electricity:Zone:PERIM,hourly; !- [J]
Output:Meter:Cumulative,InteriorLights:Electricity:Zone:PERIM,hourly; !- [J]
Output:Meter,General:InteriorLights:Electricity,hourly; !- [J]
Output:Meter:Cumulative,General:InteriorLights:Electricity,hourly; !- [J]
Output:Meter,Electricity:Zone:CORE,hourly; !- [J]
Output:Meter:Cumulative,Electricity:Zone:CORE,hourly; !- [J]
Output:Meter,InteriorLights:Electricity:Zone:CORE,hourly; !- [J]
Output:Meter:Cumulative,InteriorLights:Electricity:Zone:CORE,hourly; !- [J]
Output:Meter,InteriorEquipment:Electricity,hourly; !- [J]
Output:Meter:Cumulative,InteriorEquipment:Electricity,hourly; !- [J]
Output:Meter,InteriorEquipment:Electricity:Zone:PERIM,hourly; !- [J]
Output:Meter:Cumulative,InteriorEquipment:Electricity:Zone:PERIM,hourly; !- [J]
Output:Meter,General:InteriorEquipment:Electricity,hourly; !- [J]
Output:Meter:Cumulative,General:InteriorEquipment:Electricity,hourly; !- [J]
Output:Meter,InteriorEquipment:Electricity:Zone:CORE,hourly; !- [J]
Output:Meter:Cumulative,InteriorEquipment:Electricity:Zone:CORE,hourly; !- [J]
Output:Meter,EnergyTransfer:Facility,hourly; !- [J]
Output:Meter:Cumulative,EnergyTransfer:Facility,hourly; !- [J]
Output:Meter,EnergyTransfer:Building,hourly; !- [J]
Output:Meter:Cumulative,EnergyTransfer:Building,hourly; !- [J]
Output:Meter,EnergyTransfer:Zone:PERIM,hourly; !- [J]
Output:Meter:Cumulative,EnergyTransfer:Zone:PERIM,hourly; !- [J]
Output:Meter,Heating:EnergyTransfer,hourly; !- [J]
Output:Meter:Cumulative,Heating:EnergyTransfer,hourly; !- [J]
Output:Meter,Heating:EnergyTransfer:Zone:PERIM,hourly; !- [J]
Output:Meter:Cumulative,Heating:EnergyTransfer:Zone:PERIM,hourly; !- [J]
Output:Meter,Cooling:EnergyTransfer,hourly; !- [J]
Output:Meter:Cumulative,Cooling:EnergyTransfer,hourly; !- [J]
Output:Meter,Cooling:EnergyTransfer:Zone:PERIM,hourly; !- [J]
Output:Meter:Cumulative,Cooling:EnergyTransfer:Zone:PERIM,hourly; !- [J]
Output:Meter,EnergyTransfer:Zone:CORE,hourly; !- [J]
Output:Meter:Cumulative,EnergyTransfer:Zone:CORE,hourly; !- [J]
Output:Meter,Heating:EnergyTransfer:Zone:CORE,hourly; !- [J]
Output:Meter:Cumulative,Heating:EnergyTransfer:Zone:CORE,hourly; !- [J]
Output:Meter,Cooling:EnergyTransfer:Zone:CORE,hourly; !- [J]
Output:Meter:Cumulative,Cooling:EnergyTransfer:Zone:CORE,hourly; !- [J]
Output:Meter,DistrictHeating:Facility,hourly; !- [J]
Output:Meter:Cumulative,DistrictHeating:Facility,hourly; !- [J]
Output:Meter,DistrictHeating:HVAC,hourly; !- [J]
Output:Meter:Cumulative,DistrictHeating:HVAC,hourly; !- [J]
Output:Meter,Heating:DistrictHeating,hourly; !- [J]
Output:Meter:Cumulative,Heating:DistrictHeating,hourly; !- [J]
Output:Meter,DistrictCooling:Facility,hourly; !- [J]
Output:Meter:Cumulative,DistrictCooling:Facility,hourly; !- [J]
Output:Meter,DistrictCooling:HVAC,hourly; !- [J]
Output:Meter:Cumulative,DistrictCooling:HVAC,hourly; !- [J]
Output:Meter,Cooling:DistrictCooling,hourly; !- [J]
Output:Meter:Cumulative,Cooling:DistrictCooling,hourly; !- [J]
Output:Meter,Water:Facility,hourly; !- [m3]
Output:Meter:Cumulative,Water:Facility,hourly; !- [m3]
Output:Meter,Water:Plant,hourly; !- [m3]
Output:Meter:Cumulative,Water:Plant,hourly; !- [m3]
Output:Meter,WaterSystems:Water,hourly; !- [m3]
Output:Meter:Cumulative,WaterSystems:Water,hourly; !- [m3]
Output:Meter,DHW Perim:WaterSystems:Water,hourly; !- [m3]
Output:Meter:Cumulative,DHW Perim:WaterSystems:Water,hourly; !- [m3]
Output:Meter,MainsWater:Facility,hourly; !- [m3]
Output:Meter:Cumulative,MainsWater:Facility,hourly; !- [m3]
Output:Meter,MainsWater:Plant,hourly; !- [m3]
Output:Meter:Cumulative,MainsWater:Plant,hourly; !- [m3]
Output:Meter,WaterSystems:MainsWater,hourly; !- [m3]
Output:Meter:Cumulative,WaterSystems:MainsWater,hourly; !- [m3]
Output:Meter,DHW Perim:WaterSystems:MainsWater,hourly; !- [m3]
Output:Meter:Cumulative,DHW Perim:WaterSystems:MainsWater,hourly; !- [m3]
Output:Meter,DistrictHeating:Plant,hourly; !- [J]
Output:Meter:Cumulative,DistrictHeating:Plant,hourly; !- [J]
Output:Meter,WaterSystems:DistrictHeating,hourly; !- [J]
Output:Meter:Cumulative,WaterSystems:DistrictHeating,hourly; !- [J]
Output:Meter,DHW Perim:WaterSystems:DistrictHeating,hourly; !- [J]
Output:Meter:Cumulative,DHW Perim:WaterSystems:DistrictHeating,hourly; !- [J]
Output:Meter,DHW Core:WaterSystems:Water,hourly; !- [m3]
Output:Meter:Cumulative,DHW Core:WaterSystems:Water,hourly; !- [m3]
Output:Meter,DHW Core:WaterSystems:MainsWater,hourly; !- [m3]
Output:Meter:Cumulative,DHW Core:WaterSystems:MainsWater,hourly; !- [m3]
Output:Meter,DHW Core:WaterSystems:DistrictHeating,hourly; !- [J]
Output:Meter:Cumulative,DHW Core:WaterSystems:DistrictHeating,hourly; !- [J]
Output:Meter,ElectricityPurchased:Facility,hourly; !- [J]
Output:Meter:Cumulative,ElectricityPurchased:Facility,hourly; !- [J]
Output:Meter,ElectricityPurchased:Plant,hourly; !- [J]
Output:Meter:Cumulative,ElectricityPurchased:Plant,hourly; !- [J]
Output:Meter,Cogeneration:ElectricityPurchased,hourly; !- [J]
Output:Meter:Cumulative,Cogeneration:ElectricityPurchased,hourly; !- [J]
Output:Meter,ElectricitySurplusSold:Facility,hourly; !- [J]
Output:Meter:Cumulative,ElectricitySurplusSold:Facility,hourly; !- [J]
Output:Meter,ElectricitySurplusSold:Plant,hourly; !- [J]
Output:Meter:Cumulative,ElectricitySurplusSold:Plant,hourly; !- [J]
Output:Meter,Cogeneration:ElectricitySurplusSold,hourly; !- [J]
Output:Meter:Cumulative,Cogeneration:ElectricitySurplusSold,hourly; !- [J]
Output:Meter,ElectricityNet:Facility,hourly; !- [J]
Output:Meter:Cumulative,ElectricityNet:Facility,hourly; !- [J]
Output:Meter,ElectricityNet:Plant,hourly; !- [J]
Output:Meter:Cumulative,ElectricityNet:Plant,hourly; !- [J]
Output:Meter,Cogeneration:ElectricityNet,hourly; !- [J]
Output:Meter:Cumulative,Cogeneration:ElectricityNet,hourly; !- [J]
Output:Meter,Carbon Equivalent:Facility,hourly; !- [kg]
Output:Meter:Cumulative,Carbon Equivalent:Facility,hourly; !- [kg]
Output:Meter,CarbonEquivalentEmissions:Carbon Equivalent,hourly; !- [kg]
Output:Meter:Cumulative,CarbonEquivalentEmissions:Carbon Equivalent,hourly; !- [kg]
