  0
SECTION
  2
ENTITIES
999
DXF created from EnergyPlus
999
Program Version,EnergyPlus, Version 8.4.0-09f5359d8a, YMD=2023.08.02 14:39
999
Polygon Action,TRIANGULATE3DFACE
999
Color Scheme,Default
999
Text - True North
  0
TEXT
  8
1
  6
Continuous
 62
  3
 10
    99988.00000
 20
   100002.00000
 30
        0.10000
 40
 .25
  1
True North
 41
 0.0
  7
MONOTXT
210
0.0
220
0.0
230
1.0
999
Text - Building Title
  0
TEXT
  8
1
  6
Continuous
 62
  3
 10
    99985.00000
 20
    99998.00000
 30
        0.10000
 40
 .4
  1
Building - Building
 41
 0.0
  7
MONOTXT
210
0.0
220
0.0
230
1.0
999
North Arrow Stem
  0
3DFACE
  8
1
 62
  3
 10
    99989.00000
 20
   100002.00000
 30
        0.10000
 11
    99989.00000
 21
   100002.00000
 31
        0.00000
 12
    99989.00000
 22
    99999.00000
 32
        0.00000
 13
    99989.00000
 23
    99999.00000
 33
        0.10000
999
North Arrow Head 1
  0
3DFACE
  8
1
 62
  3
 10
    99989.00000
 20
   100002.00000
 30
        0.10000
 11
    99989.00000
 21
   100002.00000
 31
        0.00000
 12
    99988.50000
 22
   100001.13398
 32
        0.00000
 13
    99988.50000
 23
   100001.13398
 33
        0.10000
999
North Arrow Head 2
  0
3DFACE
  8
1
 62
  3
 10
    99989.00000
 20
   100002.00000
 30
        0.10000
 11
    99989.00000
 21
   100002.00000
 31
        0.00000
 12
    99989.50000
 22
   100001.13398
 32
        0.00000
 13
    99989.50000
 23
   100001.13398
 33
        0.10000
999
North Arrow Side 1
  0
3DFACE
  8
1
 62
  3
 10
    99988.50000
 20
   100003.50000
 30
        0.10000
 11
    99988.50000
 21
   100003.50000
 31
        0.00000
 12
    99988.50000
 22
   100002.50000
 32
        0.00000
 13
    99988.50000
 23
   100002.50000
 33
        0.10000
999
North Arrow Side 2
  0
3DFACE
  8
1
 62
  3
 10
    99988.50000
 20
   100003.50000
 30
        0.10000
 11
    99988.50000
 21
   100003.50000
 31
        0.00000
 12
    99989.50000
 22
   100002.50000
 32
        0.00000
 13
    99989.50000
 23
   100002.50000
 33
        0.10000
999
North Arrow Side 3
  0
3DFACE
  8
1
 62
  3
 10
    99989.50000
 20
   100003.50000
 30
        0.10000
 11
    99989.50000
 21
   100003.50000
 31
        0.00000
 12
    99989.50000
 22
   100002.50000
 32
        0.00000
 13
    99989.50000
 23
   100002.50000
 33
        0.10000
999
Zone Names
999
Zone=1:PERIM
999
Zone=2:CORE
999
Building Shading:SHADER_0
  0
3DFACE
  8
Building Shading
 62
195
 10
   960224.75000
 20
  1946168.12500
 30
       79.25300
 11
   960224.75000
 21
  1946168.12500
 31
       40.25300
 12
   960225.62500
 22
  1946165.62500
 32
       40.25300
 13
   960225.62500
 23
  1946165.62500
 33
       79.25300
999
Building Shading:Mir-SHADER_0
  0
3DFACE
  8
Building Shading
 62
195
 10
   960225.62500
 20
  1946165.62500
 30
       79.25300
 11
   960225.62500
 21
  1946165.62500
 31
       40.25300
 12
   960224.75000
 22
  1946168.12500
 32
       40.25300
 13
   960224.75000
 23
  1946168.12500
 33
       79.25300
999
Building Shading:SHADER_1
  0
3DFACE
  8
Building Shading
 62
195
 10
   960224.37500
 20
  1946168.25000
 30
       79.25300
 11
   960224.37500
 21
  1946168.25000
 31
       40.25300
 12
   960224.75000
 22
  1946168.12500
 32
       40.25300
 13
   960224.75000
 23
  1946168.12500
 33
       79.25300
999
Building Shading:Mir-SHADER_1
  0
3DFACE
  8
Building Shading
 62
195
 10
   960224.75000
 20
  1946168.12500
 30
       79.25300
 11
   960224.75000
 21
  1946168.12500
 31
       40.25300
 12
   960224.37500
 22
  1946168.25000
 32
       40.25300
 13
   960224.37500
 23
  1946168.25000
 33
       79.25300
999
Building Shading:SHADER_2
  0
3DFACE
  8
Building Shading
 62
195
 10
   960215.93750
 20
  1946178.62500
 30
       79.25300
 11
   960215.93750
 21
  1946178.62500
 31
       40.25300
 12
   960218.56250
 22
  1946179.62500
 32
       40.25300
 13
   960218.56250
 23
  1946179.62500
 33
       79.25300
999
Building Shading:Mir-SHADER_2
  0
3DFACE
  8
Building Shading
 62
195
 10
   960218.56250
 20
  1946179.62500
 30
       79.25300
 11
   960218.56250
 21
  1946179.62500
 31
       40.25300
 12
   960215.93750
 22
  1946178.62500
 32
       40.25300
 13
   960215.93750
 23
  1946178.62500
 33
       79.25300
999
Building Shading:SHADER_3
  0
3DFACE
  8
Building Shading
 62
195
 10
   960205.37500
 20
  1946174.00000
 30
       79.25300
 11
   960205.37500
 21
  1946174.00000
 31
       40.25300
 12
   960208.00000
 22
  1946174.87500
 32
       40.25300
 13
   960208.00000
 23
  1946174.87500
 33
       79.25300
999
Building Shading:Mir-SHADER_3
  0
3DFACE
  8
Building Shading
 62
195
 10
   960208.00000
 20
  1946174.87500
 30
       79.25300
 11
   960208.00000
 21
  1946174.87500
 31
       40.25300
 12
   960205.37500
 22
  1946174.00000
 32
       40.25300
 13
   960205.37500
 23
  1946174.00000
 33
       79.25300
999
PERIM:PERIM:F0
  0
3DFACE
  8
PERIM
 62
 43
 10
   960226.31030
 20
  1946165.83470
 30
       55.36120
 11
   960226.31030
 21
  1946165.83470
 31
       52.25300
 12
   960223.46380
 22
  1946164.88730
 32
       52.25300
 13
   960223.46380
 23
  1946164.88730
 33
       55.36120
999
PERIM:PERIM:F0:W0
  0
3DFACE
  8
PERIM
 62
143
 10
   960226.21540
 20
  1946165.80310
 30
       54.43510
 11
   960226.21540
 21
  1946165.80310
 31
       53.10300
 12
   960223.55870
 22
  1946164.91880
 32
       53.10300
 13
   960223.55870
 23
  1946164.91880
 33
       54.43510
999
PERIM:PERIM:F1
  0
3DFACE
  8
PERIM
 62
 43
 10
   960224.34220
 20
  1946162.24820
 30
       55.36120
 11
   960224.34220
 21
  1946162.24820
 31
       52.25300
 12
   960227.18860
 22
  1946163.19570
 32
       52.25300
 13
   960227.18860
 23
  1946163.19570
 33
       55.36120
999
PERIM:PERIM:F2
  0
3DFACE
  8
PERIM
 62
 43
 10
   960223.46380
 20
  1946164.88730
 30
       55.36120
 11
   960223.46380
 21
  1946164.88730
 31
       52.25300
 12
   960224.34220
 22
  1946162.24820
 32
       52.25300
 13
   960224.34220
 23
  1946162.24820
 33
       55.36120
999
PERIM:PERIM:F3
  0
3DFACE
  8
PERIM
 62
 43
 10
   960227.18860
 20
  1946163.19570
 30
       55.36120
 11
   960227.18860
 21
  1946163.19570
 31
       52.25300
 12
   960226.31030
 22
  1946165.83470
 32
       52.25300
 13
   960226.31030
 23
  1946165.83470
 33
       55.36120
999
PERIM:PERIM:F4
  0
3DFACE
  8
PERIM
 62
  8
 10
   960226.31030
 20
  1946165.83470
 30
       52.25300
 11
   960227.12170
 21
  1946163.39660
 31
       52.25300
 12
   960224.27530
 22
  1946162.44920
 32
       52.25300
 13
   960223.46380
 23
  1946164.88730
 33
       52.25300
999
PERIM:PERIM:F5
  0
3DFACE
  8
PERIM
 62
  8
 10
   960227.12170
 20
  1946163.39660
 30
       52.25300
 11
   960227.18860
 21
  1946163.19570
 31
       52.25300
 12
   960224.34220
 22
  1946162.24820
 32
       52.25300
 13
   960224.27530
 23
  1946162.44920
 33
       52.25300
999
PERIM:PERIM:F6
  0
3DFACE
  8
PERIM
 62
 15
 10
   960226.31030
 20
  1946165.83470
 30
       55.36120
 11
   960223.46380
 21
  1946164.88730
 31
       55.36120
 12
   960224.27530
 22
  1946162.44920
 32
       55.36120
 13
   960227.12170
 23
  1946163.39660
 33
       55.36120
999
PERIM:PERIM:F7
  0
3DFACE
  8
PERIM
 62
 15
 10
   960227.12170
 20
  1946163.39660
 30
       55.36120
 11
   960224.27530
 21
  1946162.44920
 31
       55.36120
 12
   960224.34220
 22
  1946162.24820
 32
       55.36120
 13
   960227.18860
 23
  1946163.19570
 33
       55.36120
999
CORE:CORE:F0
  0
3DFACE
  8
CORE
 62
 43
 10
   960227.18860
 20
  1946163.19570
 30
       55.36120
 11
   960227.18860
 21
  1946163.19570
 31
       52.25300
 12
   960224.34220
 22
  1946162.24820
 32
       52.25300
 13
   960224.34220
 23
  1946162.24820
 33
       55.36120
999
CORE:CORE:F1
  0
3DFACE
  8
CORE
 62
 43
 10
   960224.87010
 20
  1946160.66220
 30
       55.36120
 11
   960224.87010
 21
  1946160.66220
 31
       52.25300
 12
   960227.71650
 22
  1946161.60960
 32
       52.25300
 13
   960227.71650
 23
  1946161.60960
 33
       55.36120
999
CORE:CORE:F2
  0
3DFACE
  8
CORE
 62
 43
 10
   960224.34220
 20
  1946162.24820
 30
       55.36120
 11
   960224.34220
 21
  1946162.24820
 31
       52.25300
 12
   960224.87010
 22
  1946160.66220
 32
       52.25300
 13
   960224.87010
 23
  1946160.66220
 33
       55.36120
999
CORE:CORE:F3
  0
3DFACE
  8
CORE
 62
 43
 10
   960227.71650
 20
  1946161.60960
 30
       55.36120
 11
   960227.71650
 21
  1946161.60960
 31
       52.25300
 12
   960227.18860
 22
  1946163.19570
 32
       52.25300
 13
   960227.18860
 23
  1946163.19570
 33
       55.36120
999
CORE:CORE:F4
  0
3DFACE
  8
CORE
 62
  8
 10
   960227.18860
 20
  1946163.19570
 30
       52.25300
 11
   960227.67630
 21
  1946161.73040
 31
       52.25300
 12
   960224.82990
 22
  1946160.78300
 32
       52.25300
 13
   960224.34220
 23
  1946162.24820
 33
       52.25300
999
CORE:CORE:F5
  0
3DFACE
  8
CORE
 62
  8
 10
   960227.67630
 20
  1946161.73040
 30
       52.25300
 11
   960227.71650
 21
  1946161.60960
 31
       52.25300
 12
   960224.87010
 22
  1946160.66220
 32
       52.25300
 13
   960224.82990
 23
  1946160.78300
 33
       52.25300
999
CORE:CORE:F6
  0
3DFACE
  8
CORE
 62
 15
 10
   960227.18860
 20
  1946163.19570
 30
       55.36120
 11
   960224.34220
 21
  1946162.24820
 31
       55.36120
 12
   960224.82990
 22
  1946160.78300
 32
       55.36120
 13
   960227.67630
 23
  1946161.73040
 33
       55.36120
999
CORE:CORE:F7
  0
3DFACE
  8
CORE
 62
 15
 10
   960227.67630
 20
  1946161.73040
 30
       55.36120
 11
   960224.82990
 21
  1946160.78300
 31
       55.36120
 12
   960224.87010
 22
  1946160.66220
 32
       55.36120
 13
   960227.71650
 23
  1946161.60960
 33
       55.36120
  0
ENDSEC
  0
EOF
