  0
SECTION
  2
ENTITIES
999
DXF created from EnergyPlus
999
Program Version,EnergyPlus, Version 8.4.0-09f5359d8a, YMD=2023.08.02 14:39
999
Polygon Action,TRIANGULATE3DFACE
999
Color Scheme,Default
999
Text - True North
  0
TEXT
  8
1
  6
Continuous
 62
  3
 10
    99988.00000
 20
   100002.00000
 30
        0.10000
 40
 .25
  1
True North
 41
 0.0
  7
MONOTXT
210
0.0
220
0.0
230
1.0
999
Text - Building Title
  0
TEXT
  8
1
  6
Continuous
 62
  3
 10
    99985.00000
 20
    99998.00000
 30
        0.10000
 40
 .4
  1
Building - Building
 41
 0.0
  7
MONOTXT
210
0.0
220
0.0
230
1.0
999
North Arrow Stem
  0
3DFACE
  8
1
 62
  3
 10
    99989.00000
 20
   100002.00000
 30
        0.10000
 11
    99989.00000
 21
   100002.00000
 31
        0.00000
 12
    99989.00000
 22
    99999.00000
 32
        0.00000
 13
    99989.00000
 23
    99999.00000
 33
        0.10000
999
North Arrow Head 1
  0
3DFACE
  8
1
 62
  3
 10
    99989.00000
 20
   100002.00000
 30
        0.10000
 11
    99989.00000
 21
   100002.00000
 31
        0.00000
 12
    99988.50000
 22
   100001.13398
 32
        0.00000
 13
    99988.50000
 23
   100001.13398
 33
        0.10000
999
North Arrow Head 2
  0
3DFACE
  8
1
 62
  3
 10
    99989.00000
 20
   100002.00000
 30
        0.10000
 11
    99989.00000
 21
   100002.00000
 31
        0.00000
 12
    99989.50000
 22
   100001.13398
 32
        0.00000
 13
    99989.50000
 23
   100001.13398
 33
        0.10000
999
North Arrow Side 1
  0
3DFACE
  8
1
 62
  3
 10
    99988.50000
 20
   100003.50000
 30
        0.10000
 11
    99988.50000
 21
   100003.50000
 31
        0.00000
 12
    99988.50000
 22
   100002.50000
 32
        0.00000
 13
    99988.50000
 23
   100002.50000
 33
        0.10000
999
North Arrow Side 2
  0
3DFACE
  8
1
 62
  3
 10
    99988.50000
 20
   100003.50000
 30
        0.10000
 11
    99988.50000
 21
   100003.50000
 31
        0.00000
 12
    99989.50000
 22
   100002.50000
 32
        0.00000
 13
    99989.50000
 23
   100002.50000
 33
        0.10000
999
North Arrow Side 3
  0
3DFACE
  8
1
 62
  3
 10
    99989.50000
 20
   100003.50000
 30
        0.10000
 11
    99989.50000
 21
   100003.50000
 31
        0.00000
 12
    99989.50000
 22
   100002.50000
 32
        0.00000
 13
    99989.50000
 23
   100002.50000
 33
        0.10000
999
Zone Names
999
Zone=1:PERIM
999
Zone=2:CORE
999
Building Shading:SHADER_0
  0
3DFACE
  8
Building Shading
 62
195
 10
   960254.00000
 20
  1946165.25000
 30
       79.25300
 11
   960254.00000
 21
  1946165.25000
 31
       40.25300
 12
   960249.12500
 22
  1946163.50000
 32
       40.25300
 13
   960249.12500
 23
  1946163.50000
 33
       79.25300
999
Building Shading:Mir-SHADER_0
  0
3DFACE
  8
Building Shading
 62
195
 10
   960249.12500
 20
  1946163.50000
 30
       79.25300
 11
   960249.12500
 21
  1946163.50000
 31
       40.25300
 12
   960254.00000
 22
  1946165.25000
 32
       40.25300
 13
   960254.00000
 23
  1946165.25000
 33
       79.25300
999
Building Shading:SHADER_1
  0
3DFACE
  8
Building Shading
 62
195
 10
   960268.37500
 20
  1946179.75000
 30
       99.42220
 11
   960268.37500
 21
  1946179.75000
 31
       41.42220
 12
   960277.06250
 22
  1946182.87500
 32
       41.42220
 13
   960277.06250
 23
  1946182.87500
 33
       99.42220
999
Building Shading:Mir-SHADER_1
  0
3DFACE
  8
Building Shading
 62
195
 10
   960277.06250
 20
  1946182.87500
 30
       99.42220
 11
   960277.06250
 21
  1946182.87500
 31
       41.42220
 12
   960268.37500
 22
  1946179.75000
 32
       41.42220
 13
   960268.37500
 23
  1946179.75000
 33
       99.42220
999
PERIM:PERIM:F0
  0
3DFACE
  8
PERIM
 62
 43
 10
   960249.48680
 20
  1946162.45570
 30
       43.36120
 11
   960249.48680
 21
  1946162.45570
 31
       40.25300
 12
   960248.48160
 22
  1946165.28230
 32
       40.25300
 13
   960248.48160
 23
  1946165.28230
 33
       43.36120
999
PERIM:PERIM:F0:W0
  0
3DFACE
  8
PERIM
 62
143
 10
   960249.45330
 20
  1946162.54990
 30
       42.43510
 11
   960249.45330
 21
  1946162.54990
 31
       41.10300
 12
   960248.51510
 22
  1946165.18810
 32
       41.10300
 13
   960248.51510
 23
  1946165.18810
 33
       42.43510
999
PERIM:PERIM:F1
  0
3DFACE
  8
PERIM
 62
 43
 10
   960245.86100
 20
  1946164.35050
 30
       43.36120
 11
   960245.86100
 21
  1946164.35050
 31
       40.25300
 12
   960246.86610
 22
  1946161.52380
 32
       40.25300
 13
   960246.86610
 23
  1946161.52380
 33
       43.36120
999
PERIM:PERIM:F2
  0
3DFACE
  8
PERIM
 62
 43
 10
   960248.48160
 20
  1946165.28230
 30
       43.36120
 11
   960248.48160
 21
  1946165.28230
 31
       40.25300
 12
   960245.86100
 22
  1946164.35050
 32
       40.25300
 13
   960245.86100
 23
  1946164.35050
 33
       43.36120
999
PERIM:PERIM:F3
  0
3DFACE
  8
PERIM
 62
 43
 10
   960246.86610
 20
  1946161.52380
 30
       43.36120
 11
   960246.86610
 21
  1946161.52380
 31
       40.25300
 12
   960249.48680
 22
  1946162.45570
 32
       40.25300
 13
   960249.48680
 23
  1946162.45570
 33
       43.36120
999
PERIM:PERIM:F4
  0
3DFACE
  8
PERIM
 62
  8
 10
   960249.48680
 20
  1946162.45570
 30
       40.25300
 11
   960247.06570
 21
  1946161.59480
 31
       40.25300
 12
   960246.06060
 22
  1946164.42140
 32
       40.25300
 13
   960248.48160
 23
  1946165.28230
 33
       40.25300
999
PERIM:PERIM:F5
  0
3DFACE
  8
PERIM
 62
  8
 10
   960247.06570
 20
  1946161.59480
 30
       40.25300
 11
   960246.86610
 21
  1946161.52380
 31
       40.25300
 12
   960245.86100
 22
  1946164.35050
 32
       40.25300
 13
   960246.06060
 23
  1946164.42140
 33
       40.25300
999
PERIM:PERIM:F6
  0
3DFACE
  8
PERIM
 62
 15
 10
   960249.48680
 20
  1946162.45570
 30
       43.36120
 11
   960248.48160
 21
  1946165.28230
 31
       43.36120
 12
   960246.06060
 22
  1946164.42140
 32
       43.36120
 13
   960247.06570
 23
  1946161.59480
 33
       43.36120
999
PERIM:PERIM:F7
  0
3DFACE
  8
PERIM
 62
 15
 10
   960247.06570
 20
  1946161.59480
 30
       43.36120
 11
   960246.06060
 21
  1946164.42140
 31
       43.36120
 12
   960245.86100
 22
  1946164.35050
 32
       43.36120
 13
   960246.86610
 23
  1946161.52380
 33
       43.36120
999
CORE:CORE:F0
  0
3DFACE
  8
CORE
 62
 43
 10
   960246.86610
 20
  1946161.52380
 30
       43.36120
 11
   960246.86610
 21
  1946161.52380
 31
       40.25300
 12
   960245.86100
 22
  1946164.35050
 32
       40.25300
 13
   960245.86100
 23
  1946164.35050
 33
       43.36120
999
CORE:CORE:F1
  0
3DFACE
  8
CORE
 62
 43
 10
   960244.28600
 20
  1946163.79040
 30
       43.36120
 11
   960244.28600
 21
  1946163.79040
 31
       40.25300
 12
   960245.29120
 22
  1946160.96380
 32
       40.25300
 13
   960245.29120
 23
  1946160.96380
 33
       43.36120
999
CORE:CORE:F2
  0
3DFACE
  8
CORE
 62
 43
 10
   960245.86100
 20
  1946164.35050
 30
       43.36120
 11
   960245.86100
 21
  1946164.35050
 31
       40.25300
 12
   960244.28600
 22
  1946163.79040
 32
       40.25300
 13
   960244.28600
 23
  1946163.79040
 33
       43.36120
999
CORE:CORE:F3
  0
3DFACE
  8
CORE
 62
 43
 10
   960245.29120
 20
  1946160.96380
 30
       43.36120
 11
   960245.29120
 21
  1946160.96380
 31
       40.25300
 12
   960246.86610
 22
  1946161.52380
 32
       40.25300
 13
   960246.86610
 23
  1946161.52380
 33
       43.36120
999
CORE:CORE:F4
  0
3DFACE
  8
CORE
 62
  8
 10
   960246.86610
 20
  1946161.52380
 30
       40.25300
 11
   960245.41110
 21
  1946161.00640
 31
       40.25300
 12
   960244.40600
 22
  1946163.83310
 32
       40.25300
 13
   960245.86100
 23
  1946164.35050
 33
       40.25300
999
CORE:CORE:F5
  0
3DFACE
  8
CORE
 62
  8
 10
   960245.41110
 20
  1946161.00640
 30
       40.25300
 11
   960245.29120
 21
  1946160.96380
 31
       40.25300
 12
   960244.28600
 22
  1946163.79040
 32
       40.25300
 13
   960244.40600
 23
  1946163.83310
 33
       40.25300
999
CORE:CORE:F6
  0
3DFACE
  8
CORE
 62
 15
 10
   960246.86610
 20
  1946161.52380
 30
       43.36120
 11
   960245.86100
 21
  1946164.35050
 31
       43.36120
 12
   960244.40600
 22
  1946163.83310
 32
       43.36120
 13
   960245.41110
 23
  1946161.00640
 33
       43.36120
999
CORE:CORE:F7
  0
3DFACE
  8
CORE
 62
 15
 10
   960245.41110
 20
  1946161.00640
 30
       43.36120
 11
   960244.40600
 21
  1946163.83310
 31
       43.36120
 12
   960244.28600
 22
  1946163.79040
 32
       43.36120
 13
   960245.29120
 23
  1946160.96380
 33
       43.36120
  0
ENDSEC
  0
EOF
