  0
SECTION
  2
ENTITIES
999
DXF created from EnergyPlus
999
Program Version,EnergyPlus, Version 8.4.0-09f5359d8a, YMD=2023.08.02 14:39
999
Polygon Action,TRIANGULATE3DFACE
999
Color Scheme,Default
999
Text - True North
  0
TEXT
  8
1
  6
Continuous
 62
  3
 10
    99988.00000
 20
   100002.00000
 30
        0.10000
 40
 .25
  1
True North
 41
 0.0
  7
MONOTXT
210
0.0
220
0.0
230
1.0
999
Text - Building Title
  0
TEXT
  8
1
  6
Continuous
 62
  3
 10
    99985.00000
 20
    99998.00000
 30
        0.10000
 40
 .4
  1
Building - Building
 41
 0.0
  7
MONOTXT
210
0.0
220
0.0
230
1.0
999
North Arrow Stem
  0
3DFACE
  8
1
 62
  3
 10
    99989.00000
 20
   100002.00000
 30
        0.10000
 11
    99989.00000
 21
   100002.00000
 31
        0.00000
 12
    99989.00000
 22
    99999.00000
 32
        0.00000
 13
    99989.00000
 23
    99999.00000
 33
        0.10000
999
North Arrow Head 1
  0
3DFACE
  8
1
 62
  3
 10
    99989.00000
 20
   100002.00000
 30
        0.10000
 11
    99989.00000
 21
   100002.00000
 31
        0.00000
 12
    99988.50000
 22
   100001.13398
 32
        0.00000
 13
    99988.50000
 23
   100001.13398
 33
        0.10000
999
North Arrow Head 2
  0
3DFACE
  8
1
 62
  3
 10
    99989.00000
 20
   100002.00000
 30
        0.10000
 11
    99989.00000
 21
   100002.00000
 31
        0.00000
 12
    99989.50000
 22
   100001.13398
 32
        0.00000
 13
    99989.50000
 23
   100001.13398
 33
        0.10000
999
North Arrow Side 1
  0
3DFACE
  8
1
 62
  3
 10
    99988.50000
 20
   100003.50000
 30
        0.10000
 11
    99988.50000
 21
   100003.50000
 31
        0.00000
 12
    99988.50000
 22
   100002.50000
 32
        0.00000
 13
    99988.50000
 23
   100002.50000
 33
        0.10000
999
North Arrow Side 2
  0
3DFACE
  8
1
 62
  3
 10
    99988.50000
 20
   100003.50000
 30
        0.10000
 11
    99988.50000
 21
   100003.50000
 31
        0.00000
 12
    99989.50000
 22
   100002.50000
 32
        0.00000
 13
    99989.50000
 23
   100002.50000
 33
        0.10000
999
North Arrow Side 3
  0
3DFACE
  8
1
 62
  3
 10
    99989.50000
 20
   100003.50000
 30
        0.10000
 11
    99989.50000
 21
   100003.50000
 31
        0.00000
 12
    99989.50000
 22
   100002.50000
 32
        0.00000
 13
    99989.50000
 23
   100002.50000
 33
        0.10000
999
Zone Names
999
Zone=1:PERIM
999
Zone=2:CORE
999
Building Shading:SHADER_0
  0
3DFACE
  8
Building Shading
 62
195
 10
   960243.31250
 20
  1946154.00000
 30
       50.00300
 11
   960243.31250
 21
  1946154.00000
 31
       59.75300
 12
   960243.50000
 22
  1946153.37500
 32
       59.75300
 13
   960243.50000
 23
  1946153.37500
 33
       50.00300
999
Building Shading:Mir-SHADER_0
  0
3DFACE
  8
Building Shading
 62
195
 10
   960243.50000
 20
  1946153.37500
 30
       50.00300
 11
   960243.50000
 21
  1946153.37500
 31
       59.75300
 12
   960243.31250
 22
  1946154.00000
 32
       59.75300
 13
   960243.31250
 23
  1946154.00000
 33
       50.00300
999
Building Shading:SHADER_1
  0
3DFACE
  8
Building Shading
 62
195
 10
   960243.50000
 20
  1946153.37500
 30
       69.50300
 11
   960243.50000
 21
  1946153.37500
 31
       59.75300
 12
   960243.31250
 22
  1946154.00000
 32
       59.75300
 13
   960243.31250
 23
  1946154.00000
 33
       69.50300
999
Building Shading:Mir-SHADER_1
  0
3DFACE
  8
Building Shading
 62
195
 10
   960243.31250
 20
  1946154.00000
 30
       69.50300
 11
   960243.31250
 21
  1946154.00000
 31
       59.75300
 12
   960243.50000
 22
  1946153.37500
 32
       59.75300
 13
   960243.50000
 23
  1946153.37500
 33
       69.50300
999
Building Shading:SHADER_2
  0
3DFACE
  8
Building Shading
 62
195
 10
   960296.68750
 20
  1946131.75000
 30
       82.82670
 11
   960296.68750
 21
  1946131.75000
 31
       68.32670
 12
   960297.12500
 22
  1946130.50000
 32
       68.32670
 13
   960297.12500
 23
  1946130.50000
 33
       82.82670
999
Building Shading:Mir-SHADER_2
  0
3DFACE
  8
Building Shading
 62
195
 10
   960297.12500
 20
  1946130.50000
 30
       82.82670
 11
   960297.12500
 21
  1946130.50000
 31
       68.32670
 12
   960296.68750
 22
  1946131.75000
 32
       68.32670
 13
   960296.68750
 23
  1946131.75000
 33
       82.82670
999
PERIM:PERIM:F0
  0
3DFACE
  8
PERIM
 62
 43
 10
   960243.59750
 20
  1946154.37930
 30
       61.36120
 11
   960243.59750
 21
  1946154.37930
 31
       58.25300
 12
   960246.40540
 22
  1946155.43560
 32
       58.25300
 13
   960246.40540
 23
  1946155.43560
 33
       61.36120
999
PERIM:PERIM:F0:W0
  0
3DFACE
  8
PERIM
 62
143
 10
   960243.69110
 20
  1946154.41450
 30
       60.43510
 11
   960243.69110
 21
  1946154.41450
 31
       59.10300
 12
   960246.31180
 22
  1946155.40040
 32
       59.10300
 13
   960246.31180
 23
  1946155.40040
 33
       60.43510
999
PERIM:PERIM:F1
  0
3DFACE
  8
PERIM
 62
 43
 10
   960245.42610
 20
  1946158.03890
 30
       61.36120
 11
   960245.42610
 21
  1946158.03890
 31
       58.25300
 12
   960242.61820
 22
  1946156.98260
 32
       58.25300
 13
   960242.61820
 23
  1946156.98260
 33
       61.36120
999
PERIM:PERIM:F2
  0
3DFACE
  8
PERIM
 62
 43
 10
   960246.40540
 20
  1946155.43560
 30
       61.36120
 11
   960246.40540
 21
  1946155.43560
 31
       58.25300
 12
   960245.42610
 22
  1946158.03890
 32
       58.25300
 13
   960245.42610
 23
  1946158.03890
 33
       61.36120
999
PERIM:PERIM:F3
  0
3DFACE
  8
PERIM
 62
 43
 10
   960242.61820
 20
  1946156.98260
 30
       61.36120
 11
   960242.61820
 21
  1946156.98260
 31
       58.25300
 12
   960243.59750
 22
  1946154.37930
 32
       58.25300
 13
   960243.59750
 23
  1946154.37930
 33
       61.36120
999
PERIM:PERIM:F4
  0
3DFACE
  8
PERIM
 62
  8
 10
   960243.59750
 20
  1946154.37930
 30
       58.25300
 11
   960242.69280
 21
  1946156.78440
 31
       58.25300
 12
   960245.50070
 22
  1946157.84060
 32
       58.25300
 13
   960246.40540
 23
  1946155.43560
 33
       58.25300
999
PERIM:PERIM:F5
  0
3DFACE
  8
PERIM
 62
  8
 10
   960242.69280
 20
  1946156.78440
 30
       58.25300
 11
   960242.61820
 21
  1946156.98260
 31
       58.25300
 12
   960245.42610
 22
  1946158.03890
 32
       58.25300
 13
   960245.50070
 23
  1946157.84060
 33
       58.25300
999
PERIM:PERIM:F6
  0
3DFACE
  8
PERIM
 62
 15
 10
   960243.59750
 20
  1946154.37930
 30
       61.36120
 11
   960246.40540
 21
  1946155.43560
 31
       61.36120
 12
   960245.50070
 22
  1946157.84060
 32
       61.36120
 13
   960242.69280
 23
  1946156.78440
 33
       61.36120
999
PERIM:PERIM:F7
  0
3DFACE
  8
PERIM
 62
 15
 10
   960242.69280
 20
  1946156.78440
 30
       61.36120
 11
   960245.50070
 21
  1946157.84060
 31
       61.36120
 12
   960245.42610
 22
  1946158.03890
 32
       61.36120
 13
   960242.61820
 23
  1946156.98260
 33
       61.36120
999
CORE:CORE:F0
  0
3DFACE
  8
CORE
 62
 43
 10
   960242.61820
 20
  1946156.98260
 30
       61.36120
 11
   960242.61820
 21
  1946156.98260
 31
       58.25300
 12
   960245.42610
 22
  1946158.03890
 32
       58.25300
 13
   960245.42610
 23
  1946158.03890
 33
       61.36120
999
CORE:CORE:F1
  0
3DFACE
  8
CORE
 62
 43
 10
   960244.83760
 20
  1946159.60340
 30
       61.36120
 11
   960244.83760
 21
  1946159.60340
 31
       58.25300
 12
   960242.02970
 22
  1946158.54720
 32
       58.25300
 13
   960242.02970
 23
  1946158.54720
 33
       61.36120
999
CORE:CORE:F2
  0
3DFACE
  8
CORE
 62
 43
 10
   960245.42610
 20
  1946158.03890
 30
       61.36120
 11
   960245.42610
 21
  1946158.03890
 31
       58.25300
 12
   960244.83760
 22
  1946159.60340
 32
       58.25300
 13
   960244.83760
 23
  1946159.60340
 33
       61.36120
999
CORE:CORE:F3
  0
3DFACE
  8
CORE
 62
 43
 10
   960242.02970
 20
  1946158.54720
 30
       61.36120
 11
   960242.02970
 21
  1946158.54720
 31
       58.25300
 12
   960242.61820
 22
  1946156.98260
 32
       58.25300
 13
   960242.61820
 23
  1946156.98260
 33
       61.36120
999
CORE:CORE:F4
  0
3DFACE
  8
CORE
 62
  8
 10
   960242.61820
 20
  1946156.98260
 30
       58.25300
 11
   960242.07450
 21
  1946158.42800
 31
       58.25300
 12
   960244.88240
 22
  1946159.48430
 32
       58.25300
 13
   960245.42610
 23
  1946158.03890
 33
       58.25300
999
CORE:CORE:F5
  0
3DFACE
  8
CORE
 62
  8
 10
   960242.07450
 20
  1946158.42800
 30
       58.25300
 11
   960242.02970
 21
  1946158.54720
 31
       58.25300
 12
   960244.83760
 22
  1946159.60340
 32
       58.25300
 13
   960244.88240
 23
  1946159.48430
 33
       58.25300
999
CORE:CORE:F6
  0
3DFACE
  8
CORE
 62
 15
 10
   960242.61820
 20
  1946156.98260
 30
       61.36120
 11
   960245.42610
 21
  1946158.03890
 31
       61.36120
 12
   960244.88240
 22
  1946159.48430
 32
       61.36120
 13
   960242.07450
 23
  1946158.42800
 33
       61.36120
999
CORE:CORE:F7
  0
3DFACE
  8
CORE
 62
 15
 10
   960242.07450
 20
  1946158.42800
 30
       61.36120
 11
   960244.88240
 21
  1946159.48430
 31
       61.36120
 12
   960244.83760
 22
  1946159.60340
 32
       61.36120
 13
   960242.02970
 23
  1946158.54720
 33
       61.36120
  0
ENDSEC
  0
EOF
