  0
SECTION
  2
ENTITIES
999
DXF created from EnergyPlus
999
Program Version,EnergyPlus, Version 8.4.0-09f5359d8a, YMD=2023.08.02 14:39
999
Polygon Action,TRIANGULATE3DFACE
999
Color Scheme,Default
999
Text - True North
  0
TEXT
  8
1
  6
Continuous
 62
  3
 10
    99988.00000
 20
   100002.00000
 30
        0.10000
 40
 .25
  1
True North
 41
 0.0
  7
MONOTXT
210
0.0
220
0.0
230
1.0
999
Text - Building Title
  0
TEXT
  8
1
  6
Continuous
 62
  3
 10
    99985.00000
 20
    99998.00000
 30
        0.10000
 40
 .4
  1
Building - Building
 41
 0.0
  7
MONOTXT
210
0.0
220
0.0
230
1.0
999
North Arrow Stem
  0
3DFACE
  8
1
 62
  3
 10
    99989.00000
 20
   100002.00000
 30
        0.10000
 11
    99989.00000
 21
   100002.00000
 31
        0.00000
 12
    99989.00000
 22
    99999.00000
 32
        0.00000
 13
    99989.00000
 23
    99999.00000
 33
        0.10000
999
North Arrow Head 1
  0
3DFACE
  8
1
 62
  3
 10
    99989.00000
 20
   100002.00000
 30
        0.10000
 11
    99989.00000
 21
   100002.00000
 31
        0.00000
 12
    99988.50000
 22
   100001.13398
 32
        0.00000
 13
    99988.50000
 23
   100001.13398
 33
        0.10000
999
North Arrow Head 2
  0
3DFACE
  8
1
 62
  3
 10
    99989.00000
 20
   100002.00000
 30
        0.10000
 11
    99989.00000
 21
   100002.00000
 31
        0.00000
 12
    99989.50000
 22
   100001.13398
 32
        0.00000
 13
    99989.50000
 23
   100001.13398
 33
        0.10000
999
North Arrow Side 1
  0
3DFACE
  8
1
 62
  3
 10
    99988.50000
 20
   100003.50000
 30
        0.10000
 11
    99988.50000
 21
   100003.50000
 31
        0.00000
 12
    99988.50000
 22
   100002.50000
 32
        0.00000
 13
    99988.50000
 23
   100002.50000
 33
        0.10000
999
North Arrow Side 2
  0
3DFACE
  8
1
 62
  3
 10
    99988.50000
 20
   100003.50000
 30
        0.10000
 11
    99988.50000
 21
   100003.50000
 31
        0.00000
 12
    99989.50000
 22
   100002.50000
 32
        0.00000
 13
    99989.50000
 23
   100002.50000
 33
        0.10000
999
North Arrow Side 3
  0
3DFACE
  8
1
 62
  3
 10
    99989.50000
 20
   100003.50000
 30
        0.10000
 11
    99989.50000
 21
   100003.50000
 31
        0.00000
 12
    99989.50000
 22
   100002.50000
 32
        0.00000
 13
    99989.50000
 23
   100002.50000
 33
        0.10000
999
Zone Names
999
Zone=1:PERIM
999
Zone=2:CORE
999
Building Shading:SHADER_0
  0
3DFACE
  8
Building Shading
 62
195
 10
   960199.06250
 20
  1946125.37500
 30
       58.99870
 11
   960199.06250
 21
  1946125.37500
 31
       38.99870
 12
   960197.50000
 22
  1946128.87500
 32
       38.99870
 13
   960197.50000
 23
  1946128.87500
 33
       58.99870
999
Building Shading:Mir-SHADER_0
  0
3DFACE
  8
Building Shading
 62
195
 10
   960197.50000
 20
  1946128.87500
 30
       58.99870
 11
   960197.50000
 21
  1946128.87500
 31
       38.99870
 12
   960199.06250
 22
  1946125.37500
 32
       38.99870
 13
   960199.06250
 23
  1946125.37500
 33
       58.99870
999
Building Shading:SHADER_1
  0
3DFACE
  8
Building Shading
 62
195
 10
   960215.00000
 20
  1946125.50000
 30
       52.05000
 11
   960215.00000
 21
  1946125.50000
 31
       39.05000
 12
   960206.56250
 22
  1946122.50000
 32
       39.05000
 13
   960206.56250
 23
  1946122.50000
 33
       52.05000
999
Building Shading:Mir-SHADER_1
  0
3DFACE
  8
Building Shading
 62
195
 10
   960206.56250
 20
  1946122.50000
 30
       52.05000
 11
   960206.56250
 21
  1946122.50000
 31
       39.05000
 12
   960215.00000
 22
  1946125.50000
 32
       39.05000
 13
   960215.00000
 23
  1946125.50000
 33
       52.05000
999
Building Shading:SHADER_2
  0
3DFACE
  8
Building Shading
 62
195
 10
   960225.75000
 20
  1946129.00000
 30
       52.17620
 11
   960225.75000
 21
  1946129.00000
 31
       39.17620
 12
   960216.06250
 22
  1946125.50000
 32
       39.17620
 13
   960216.06250
 23
  1946125.50000
 33
       52.17620
999
Building Shading:Mir-SHADER_2
  0
3DFACE
  8
Building Shading
 62
195
 10
   960216.06250
 20
  1946125.50000
 30
       52.17620
 11
   960216.06250
 21
  1946125.50000
 31
       39.17620
 12
   960225.75000
 22
  1946129.00000
 32
       39.17620
 13
   960225.75000
 23
  1946129.00000
 33
       52.17620
999
Building Shading:SHADER_3
  0
3DFACE
  8
Building Shading
 62
195
 10
   960235.06250
 20
  1946132.37500
 30
       52.29530
 11
   960235.06250
 21
  1946132.37500
 31
       39.29530
 12
   960226.62500
 22
  1946129.37500
 32
       39.29530
 13
   960226.62500
 23
  1946129.37500
 33
       52.29530
999
Building Shading:Mir-SHADER_3
  0
3DFACE
  8
Building Shading
 62
195
 10
   960226.62500
 20
  1946129.37500
 30
       52.29530
 11
   960226.62500
 21
  1946129.37500
 31
       39.29530
 12
   960235.06250
 22
  1946132.37500
 32
       39.29530
 13
   960235.06250
 23
  1946132.37500
 33
       52.29530
999
Building Shading:SHADER_4
  0
3DFACE
  8
Building Shading
 62
195
 10
   960411.75000
 20
  1946162.37500
 30
       97.42050
 11
   960411.75000
 21
  1946162.37500
 31
       38.42050
 12
   960407.75000
 22
  1946160.87500
 32
       38.42050
 13
   960407.75000
 23
  1946160.87500
 33
       97.42050
999
Building Shading:Mir-SHADER_4
  0
3DFACE
  8
Building Shading
 62
195
 10
   960407.75000
 20
  1946160.87500
 30
       97.42050
 11
   960407.75000
 21
  1946160.87500
 31
       38.42050
 12
   960411.75000
 22
  1946162.37500
 32
       38.42050
 13
   960411.75000
 23
  1946162.37500
 33
       97.42050
999
PERIM:PERIM:F0
  0
3DFACE
  8
PERIM
 62
 43
 10
   960222.35670
 20
  1946144.70650
 30
       46.36120
 11
   960222.35670
 21
  1946144.70650
 31
       43.25300
 12
   960225.17590
 22
  1946145.73220
 32
       43.25300
 13
   960225.17590
 23
  1946145.73220
 33
       46.36120
999
PERIM:PERIM:F0:W0
  0
3DFACE
  8
PERIM
 62
143
 10
   960222.45060
 20
  1946144.74060
 30
       45.43510
 11
   960222.45060
 21
  1946144.74060
 31
       44.10300
 12
   960225.08190
 22
  1946145.69800
 32
       44.10300
 13
   960225.08190
 23
  1946145.69800
 33
       45.43510
999
PERIM:PERIM:F1
  0
3DFACE
  8
PERIM
 62
 43
 10
   960224.22490
 20
  1946148.34590
 30
       46.36120
 11
   960224.22490
 21
  1946148.34590
 31
       43.25300
 12
   960221.40570
 22
  1946147.32020
 32
       43.25300
 13
   960221.40570
 23
  1946147.32020
 33
       46.36120
999
PERIM:PERIM:F2
  0
3DFACE
  8
PERIM
 62
 43
 10
   960225.17590
 20
  1946145.73220
 30
       46.36120
 11
   960225.17590
 21
  1946145.73220
 31
       43.25300
 12
   960224.22490
 22
  1946148.34590
 32
       43.25300
 13
   960224.22490
 23
  1946148.34590
 33
       46.36120
999
PERIM:PERIM:F3
  0
3DFACE
  8
PERIM
 62
 43
 10
   960221.40570
 20
  1946147.32020
 30
       46.36120
 11
   960221.40570
 21
  1946147.32020
 31
       43.25300
 12
   960222.35670
 22
  1946144.70650
 32
       43.25300
 13
   960222.35670
 23
  1946144.70650
 33
       46.36120
999
PERIM:PERIM:F4
  0
3DFACE
  8
PERIM
 62
  8
 10
   960222.35670
 20
  1946144.70650
 30
       43.25300
 11
   960221.47810
 21
  1946147.12120
 31
       43.25300
 12
   960224.29730
 22
  1946148.14690
 32
       43.25300
 13
   960225.17590
 23
  1946145.73220
 33
       43.25300
999
PERIM:PERIM:F5
  0
3DFACE
  8
PERIM
 62
  8
 10
   960221.47810
 20
  1946147.12120
 30
       43.25300
 11
   960221.40570
 21
  1946147.32020
 31
       43.25300
 12
   960224.22490
 22
  1946148.34590
 32
       43.25300
 13
   960224.29730
 23
  1946148.14690
 33
       43.25300
999
PERIM:PERIM:F6
  0
3DFACE
  8
PERIM
 62
 15
 10
   960222.35670
 20
  1946144.70650
 30
       46.36120
 11
   960225.17590
 21
  1946145.73220
 31
       46.36120
 12
   960224.29730
 22
  1946148.14690
 32
       46.36120
 13
   960221.47810
 23
  1946147.12120
 33
       46.36120
999
PERIM:PERIM:F7
  0
3DFACE
  8
PERIM
 62
 15
 10
   960221.47810
 20
  1946147.12120
 30
       46.36120
 11
   960224.29730
 21
  1946148.14690
 31
       46.36120
 12
   960224.22490
 22
  1946148.34590
 32
       46.36120
 13
   960221.40570
 23
  1946147.32020
 33
       46.36120
999
CORE:CORE:F0
  0
3DFACE
  8
CORE
 62
 43
 10
   960221.40570
 20
  1946147.32020
 30
       46.36120
 11
   960221.40570
 21
  1946147.32020
 31
       43.25300
 12
   960224.22490
 22
  1946148.34590
 32
       43.25300
 13
   960224.22490
 23
  1946148.34590
 33
       46.36120
999
CORE:CORE:F1
  0
3DFACE
  8
CORE
 62
 43
 10
   960223.65340
 20
  1946149.91680
 30
       46.36120
 11
   960223.65340
 21
  1946149.91680
 31
       43.25300
 12
   960220.83420
 22
  1946148.89110
 32
       43.25300
 13
   960220.83420
 23
  1946148.89110
 33
       46.36120
999
CORE:CORE:F2
  0
3DFACE
  8
CORE
 62
 43
 10
   960224.22490
 20
  1946148.34590
 30
       46.36120
 11
   960224.22490
 21
  1946148.34590
 31
       43.25300
 12
   960223.65340
 22
  1946149.91680
 32
       43.25300
 13
   960223.65340
 23
  1946149.91680
 33
       46.36120
999
CORE:CORE:F3
  0
3DFACE
  8
CORE
 62
 43
 10
   960220.83420
 20
  1946148.89110
 30
       46.36120
 11
   960220.83420
 21
  1946148.89110
 31
       43.25300
 12
   960221.40570
 22
  1946147.32020
 32
       43.25300
 13
   960221.40570
 23
  1946147.32020
 33
       46.36120
999
CORE:CORE:F4
  0
3DFACE
  8
CORE
 62
  8
 10
   960221.40570
 20
  1946147.32020
 30
       43.25300
 11
   960220.87770
 21
  1946148.77140
 31
       43.25300
 12
   960223.69690
 22
  1946149.79720
 32
       43.25300
 13
   960224.22490
 23
  1946148.34590
 33
       43.25300
999
CORE:CORE:F5
  0
3DFACE
  8
CORE
 62
  8
 10
   960220.87770
 20
  1946148.77140
 30
       43.25300
 11
   960220.83420
 21
  1946148.89110
 31
       43.25300
 12
   960223.65340
 22
  1946149.91680
 32
       43.25300
 13
   960223.69690
 23
  1946149.79720
 33
       43.25300
999
CORE:CORE:F6
  0
3DFACE
  8
CORE
 62
 15
 10
   960221.40570
 20
  1946147.32020
 30
       46.36120
 11
   960224.22490
 21
  1946148.34590
 31
       46.36120
 12
   960223.69690
 22
  1946149.79720
 32
       46.36120
 13
   960220.87770
 23
  1946148.77140
 33
       46.36120
999
CORE:CORE:F7
  0
3DFACE
  8
CORE
 62
 15
 10
   960220.87770
 20
  1946148.77140
 30
       46.36120
 11
   960223.69690
 21
  1946149.79720
 31
       46.36120
 12
   960223.65340
 22
  1946149.91680
 32
       46.36120
 13
   960220.83420
 23
  1946148.89110
 33
       46.36120
  0
ENDSEC
  0
EOF
