  0
SECTION
  2
ENTITIES
999
DXF created from EnergyPlus
999
Program Version,EnergyPlus, Version 8.4.0-09f5359d8a, YMD=2023.08.02 14:39
999
Polygon Action,TRIANGULATE3DFACE
999
Color Scheme,Default
999
Text - True North
  0
TEXT
  8
1
  6
Continuous
 62
  3
 10
    99988.00000
 20
   100002.00000
 30
        0.10000
 40
 .25
  1
True North
 41
 0.0
  7
MONOTXT
210
0.0
220
0.0
230
1.0
999
Text - Building Title
  0
TEXT
  8
1
  6
Continuous
 62
  3
 10
    99985.00000
 20
    99998.00000
 30
        0.10000
 40
 .4
  1
Building - Building
 41
 0.0
  7
MONOTXT
210
0.0
220
0.0
230
1.0
999
North Arrow Stem
  0
3DFACE
  8
1
 62
  3
 10
    99989.00000
 20
   100002.00000
 30
        0.10000
 11
    99989.00000
 21
   100002.00000
 31
        0.00000
 12
    99989.00000
 22
    99999.00000
 32
        0.00000
 13
    99989.00000
 23
    99999.00000
 33
        0.10000
999
North Arrow Head 1
  0
3DFACE
  8
1
 62
  3
 10
    99989.00000
 20
   100002.00000
 30
        0.10000
 11
    99989.00000
 21
   100002.00000
 31
        0.00000
 12
    99988.50000
 22
   100001.13398
 32
        0.00000
 13
    99988.50000
 23
   100001.13398
 33
        0.10000
999
North Arrow Head 2
  0
3DFACE
  8
1
 62
  3
 10
    99989.00000
 20
   100002.00000
 30
        0.10000
 11
    99989.00000
 21
   100002.00000
 31
        0.00000
 12
    99989.50000
 22
   100001.13398
 32
        0.00000
 13
    99989.50000
 23
   100001.13398
 33
        0.10000
999
North Arrow Side 1
  0
3DFACE
  8
1
 62
  3
 10
    99988.50000
 20
   100003.50000
 30
        0.10000
 11
    99988.50000
 21
   100003.50000
 31
        0.00000
 12
    99988.50000
 22
   100002.50000
 32
        0.00000
 13
    99988.50000
 23
   100002.50000
 33
        0.10000
999
North Arrow Side 2
  0
3DFACE
  8
1
 62
  3
 10
    99988.50000
 20
   100003.50000
 30
        0.10000
 11
    99988.50000
 21
   100003.50000
 31
        0.00000
 12
    99989.50000
 22
   100002.50000
 32
        0.00000
 13
    99989.50000
 23
   100002.50000
 33
        0.10000
999
North Arrow Side 3
  0
3DFACE
  8
1
 62
  3
 10
    99989.50000
 20
   100003.50000
 30
        0.10000
 11
    99989.50000
 21
   100003.50000
 31
        0.00000
 12
    99989.50000
 22
   100002.50000
 32
        0.00000
 13
    99989.50000
 23
   100002.50000
 33
        0.10000
999
Zone Names
999
Zone=1:PERIM
999
Zone=2:CORE
999
Building Shading:SHADER_0
  0
3DFACE
  8
Building Shading
 62
195
 10
   960248.12500
 20
  1946166.25000
 30
       79.25300
 11
   960248.12500
 21
  1946166.25000
 31
       40.25300
 12
   960245.06250
 22
  1946165.12500
 32
       40.25300
 13
   960245.06250
 23
  1946165.12500
 33
       79.25300
999
Building Shading:Mir-SHADER_0
  0
3DFACE
  8
Building Shading
 62
195
 10
   960245.06250
 20
  1946165.12500
 30
       79.25300
 11
   960245.06250
 21
  1946165.12500
 31
       40.25300
 12
   960248.12500
 22
  1946166.25000
 32
       40.25300
 13
   960248.12500
 23
  1946166.25000
 33
       79.25300
999
Building Shading:SHADER_1
  0
3DFACE
  8
Building Shading
 62
195
 10
   960263.93750
 20
  1946191.75000
 30
       99.42220
 11
   960263.93750
 21
  1946191.75000
 31
       41.42220
 12
   960268.37500
 22
  1946179.75000
 32
       41.42220
 13
   960268.37500
 23
  1946179.75000
 33
       99.42220
999
Building Shading:Mir-SHADER_1
  0
3DFACE
  8
Building Shading
 62
195
 10
   960268.37500
 20
  1946179.75000
 30
       99.42220
 11
   960268.37500
 21
  1946179.75000
 31
       41.42220
 12
   960263.93750
 22
  1946191.75000
 32
       41.42220
 13
   960263.93750
 23
  1946191.75000
 33
       99.42220
999
PERIM:PERIM:F0
  0
3DFACE
  8
PERIM
 62
 43
 10
   960245.40100
 20
  1946164.21120
 30
       49.36120
 11
   960245.40100
 21
  1946164.21120
 31
       46.25300
 12
   960244.34430
 22
  1946167.01890
 32
       46.25300
 13
   960244.34430
 23
  1946167.01890
 33
       49.36120
999
PERIM:PERIM:F0:W0
  0
3DFACE
  8
PERIM
 62
143
 10
   960245.36570
 20
  1946164.30470
 30
       48.43510
 11
   960245.36570
 21
  1946164.30470
 31
       47.10300
 12
   960244.37950
 22
  1946166.92530
 32
       47.10300
 13
   960244.37950
 23
  1946166.92530
 33
       48.43510
999
PERIM:PERIM:F1
  0
3DFACE
  8
PERIM
 62
 43
 10
   960241.74120
 20
  1946166.03930
 30
       49.36120
 11
   960241.74120
 21
  1946166.03930
 31
       46.25300
 12
   960242.79780
 22
  1946163.23150
 32
       46.25300
 13
   960242.79780
 23
  1946163.23150
 33
       49.36120
999
PERIM:PERIM:F2
  0
3DFACE
  8
PERIM
 62
 43
 10
   960244.34430
 20
  1946167.01890
 30
       49.36120
 11
   960244.34430
 21
  1946167.01890
 31
       46.25300
 12
   960241.74120
 22
  1946166.03930
 32
       46.25300
 13
   960241.74120
 23
  1946166.03930
 33
       49.36120
999
PERIM:PERIM:F3
  0
3DFACE
  8
PERIM
 62
 43
 10
   960242.79780
 20
  1946163.23150
 30
       49.36120
 11
   960242.79780
 21
  1946163.23150
 31
       46.25300
 12
   960245.40100
 22
  1946164.21120
 32
       46.25300
 13
   960245.40100
 23
  1946164.21120
 33
       49.36120
999
PERIM:PERIM:F4
  0
3DFACE
  8
PERIM
 62
  8
 10
   960245.40100
 20
  1946164.21120
 30
       46.25300
 11
   960242.99600
 21
  1946163.30610
 31
       46.25300
 12
   960241.93940
 22
  1946166.11390
 32
       46.25300
 13
   960244.34430
 23
  1946167.01890
 33
       46.25300
999
PERIM:PERIM:F5
  0
3DFACE
  8
PERIM
 62
  8
 10
   960242.99600
 20
  1946163.30610
 30
       46.25300
 11
   960242.79780
 21
  1946163.23150
 31
       46.25300
 12
   960241.74120
 22
  1946166.03930
 32
       46.25300
 13
   960241.93940
 23
  1946166.11390
 33
       46.25300
999
PERIM:PERIM:F6
  0
3DFACE
  8
PERIM
 62
 15
 10
   960245.40100
 20
  1946164.21120
 30
       49.36120
 11
   960244.34430
 21
  1946167.01890
 31
       49.36120
 12
   960241.93940
 22
  1946166.11390
 32
       49.36120
 13
   960242.99600
 23
  1946163.30610
 33
       49.36120
999
PERIM:PERIM:F7
  0
3DFACE
  8
PERIM
 62
 15
 10
   960242.99600
 20
  1946163.30610
 30
       49.36120
 11
   960241.93940
 21
  1946166.11390
 31
       49.36120
 12
   960241.74120
 22
  1946166.03930
 32
       49.36120
 13
   960242.79780
 23
  1946163.23150
 33
       49.36120
999
CORE:CORE:F0
  0
3DFACE
  8
CORE
 62
 43
 10
   960242.79780
 20
  1946163.23150
 30
       49.36120
 11
   960242.79780
 21
  1946163.23150
 31
       46.25300
 12
   960241.74120
 22
  1946166.03930
 32
       46.25300
 13
   960241.74120
 23
  1946166.03930
 33
       49.36120
999
CORE:CORE:F1
  0
3DFACE
  8
CORE
 62
 43
 10
   960240.17670
 20
  1946165.45050
 30
       49.36120
 11
   960240.17670
 21
  1946165.45050
 31
       46.25300
 12
   960241.23330
 22
  1946162.64280
 32
       46.25300
 13
   960241.23330
 23
  1946162.64280
 33
       49.36120
999
CORE:CORE:F2
  0
3DFACE
  8
CORE
 62
 43
 10
   960241.74120
 20
  1946166.03930
 30
       49.36120
 11
   960241.74120
 21
  1946166.03930
 31
       46.25300
 12
   960240.17670
 22
  1946165.45050
 32
       46.25300
 13
   960240.17670
 23
  1946165.45050
 33
       49.36120
999
CORE:CORE:F3
  0
3DFACE
  8
CORE
 62
 43
 10
   960241.23330
 20
  1946162.64280
 30
       49.36120
 11
   960241.23330
 21
  1946162.64280
 31
       46.25300
 12
   960242.79780
 22
  1946163.23150
 32
       46.25300
 13
   960242.79780
 23
  1946163.23150
 33
       49.36120
999
CORE:CORE:F4
  0
3DFACE
  8
CORE
 62
  8
 10
   960242.79780
 20
  1946163.23150
 30
       46.25300
 11
   960241.35250
 21
  1946162.68760
 31
       46.25300
 12
   960240.29580
 22
  1946165.49540
 32
       46.25300
 13
   960241.74120
 23
  1946166.03930
 33
       46.25300
999
CORE:CORE:F5
  0
3DFACE
  8
CORE
 62
  8
 10
   960241.35250
 20
  1946162.68760
 30
       46.25300
 11
   960241.23330
 21
  1946162.64280
 31
       46.25300
 12
   960240.17670
 22
  1946165.45050
 32
       46.25300
 13
   960240.29580
 23
  1946165.49540
 33
       46.25300
999
CORE:CORE:F6
  0
3DFACE
  8
CORE
 62
 15
 10
   960242.79780
 20
  1946163.23150
 30
       49.36120
 11
   960241.74120
 21
  1946166.03930
 31
       49.36120
 12
   960240.29580
 22
  1946165.49540
 32
       49.36120
 13
   960241.35250
 23
  1946162.68760
 33
       49.36120
999
CORE:CORE:F7
  0
3DFACE
  8
CORE
 62
 15
 10
   960241.35250
 20
  1946162.68760
 30
       49.36120
 11
   960240.29580
 21
  1946165.49540
 31
       49.36120
 12
   960240.17670
 22
  1946165.45050
 32
       49.36120
 13
   960241.23330
 23
  1946162.64280
 33
       49.36120
  0
ENDSEC
  0
EOF
