  0
SECTION
  2
ENTITIES
999
DXF created from EnergyPlus
999
Program Version,EnergyPlus, Version 8.4.0-09f5359d8a, YMD=2023.08.02 14:39
999
Polygon Action,TRIANGULATE3DFACE
999
Color Scheme,Default
999
Text - True North
  0
TEXT
  8
1
  6
Continuous
 62
  3
 10
    99988.00000
 20
   100002.00000
 30
        0.10000
 40
 .25
  1
True North
 41
 0.0
  7
MONOTXT
210
0.0
220
0.0
230
1.0
999
Text - Building Title
  0
TEXT
  8
1
  6
Continuous
 62
  3
 10
    99985.00000
 20
    99998.00000
 30
        0.10000
 40
 .4
  1
Building - Building
 41
 0.0
  7
MONOTXT
210
0.0
220
0.0
230
1.0
999
North Arrow Stem
  0
3DFACE
  8
1
 62
  3
 10
    99989.00000
 20
   100002.00000
 30
        0.10000
 11
    99989.00000
 21
   100002.00000
 31
        0.00000
 12
    99989.00000
 22
    99999.00000
 32
        0.00000
 13
    99989.00000
 23
    99999.00000
 33
        0.10000
999
North Arrow Head 1
  0
3DFACE
  8
1
 62
  3
 10
    99989.00000
 20
   100002.00000
 30
        0.10000
 11
    99989.00000
 21
   100002.00000
 31
        0.00000
 12
    99988.50000
 22
   100001.13398
 32
        0.00000
 13
    99988.50000
 23
   100001.13398
 33
        0.10000
999
North Arrow Head 2
  0
3DFACE
  8
1
 62
  3
 10
    99989.00000
 20
   100002.00000
 30
        0.10000
 11
    99989.00000
 21
   100002.00000
 31
        0.00000
 12
    99989.50000
 22
   100001.13398
 32
        0.00000
 13
    99989.50000
 23
   100001.13398
 33
        0.10000
999
North Arrow Side 1
  0
3DFACE
  8
1
 62
  3
 10
    99988.50000
 20
   100003.50000
 30
        0.10000
 11
    99988.50000
 21
   100003.50000
 31
        0.00000
 12
    99988.50000
 22
   100002.50000
 32
        0.00000
 13
    99988.50000
 23
   100002.50000
 33
        0.10000
999
North Arrow Side 2
  0
3DFACE
  8
1
 62
  3
 10
    99988.50000
 20
   100003.50000
 30
        0.10000
 11
    99988.50000
 21
   100003.50000
 31
        0.00000
 12
    99989.50000
 22
   100002.50000
 32
        0.00000
 13
    99989.50000
 23
   100002.50000
 33
        0.10000
999
North Arrow Side 3
  0
3DFACE
  8
1
 62
  3
 10
    99989.50000
 20
   100003.50000
 30
        0.10000
 11
    99989.50000
 21
   100003.50000
 31
        0.00000
 12
    99989.50000
 22
   100002.50000
 32
        0.00000
 13
    99989.50000
 23
   100002.50000
 33
        0.10000
999
Zone Names
999
Zone=1:PERIM
999
Zone=2:CORE
999
Building Shading:SHADER_0
  0
3DFACE
  8
Building Shading
 62
195
 10
   960501.75000
 20
  1945579.00000
 30
       36.53930
 11
   960501.75000
 21
  1945579.00000
 31
       20.53930
 12
   960503.43750
 22
  1945579.37500
 32
       20.53930
 13
   960503.43750
 23
  1945579.37500
 33
       36.53930
999
Building Shading:Mir-SHADER_0
  0
3DFACE
  8
Building Shading
 62
195
 10
   960503.43750
 20
  1945579.37500
 30
       36.53930
 11
   960503.43750
 21
  1945579.37500
 31
       20.53930
 12
   960501.75000
 22
  1945579.00000
 32
       20.53930
 13
   960501.75000
 23
  1945579.00000
 33
       36.53930
999
PERIM:PERIM:F0
  0
3DFACE
  8
PERIM
 62
 43
 10
   960511.01880
 20
  1945568.14610
 30
       29.22950
 11
   960511.01880
 21
  1945568.14610
 31
       26.12130
 12
   960512.18820
 22
  1945565.38340
 32
       26.12130
 13
   960512.18820
 23
  1945565.38340
 33
       29.22950
999
PERIM:PERIM:F0:W0
  0
3DFACE
  8
PERIM
 62
143
 10
   960511.05780
 20
  1945568.05400
 30
       28.30340
 11
   960511.05780
 21
  1945568.05400
 31
       26.97130
 12
   960512.14920
 22
  1945565.47540
 32
       26.97130
 13
   960512.14920
 23
  1945565.47540
 33
       28.30340
999
PERIM:PERIM:F1
  0
3DFACE
  8
PERIM
 62
 43
 10
   960514.74960
 20
  1945566.46750
 30
       29.22950
 11
   960514.74960
 21
  1945566.46750
 31
       26.12130
 12
   960513.58020
 22
  1945569.23020
 32
       26.12130
 13
   960513.58020
 23
  1945569.23020
 33
       29.22950
999
PERIM:PERIM:F2
  0
3DFACE
  8
PERIM
 62
 43
 10
   960512.18820
 20
  1945565.38340
 30
       29.22950
 11
   960512.18820
 21
  1945565.38340
 31
       26.12130
 12
   960514.74960
 22
  1945566.46750
 32
       26.12130
 13
   960514.74960
 23
  1945566.46750
 33
       29.22950
999
PERIM:PERIM:F3
  0
3DFACE
  8
PERIM
 62
 43
 10
   960513.58020
 20
  1945569.23020
 30
       29.22950
 11
   960513.58020
 21
  1945569.23020
 31
       26.12130
 12
   960511.01880
 22
  1945568.14610
 32
       26.12130
 13
   960511.01880
 23
  1945568.14610
 33
       29.22950
999
PERIM:PERIM:F4
  0
3DFACE
  8
PERIM
 62
  8
 10
   960511.01880
 20
  1945568.14610
 30
       26.12130
 11
   960513.38520
 21
  1945569.14760
 31
       26.12130
 12
   960514.55450
 22
  1945566.38490
 32
       26.12130
 13
   960512.18820
 23
  1945565.38340
 33
       26.12130
999
PERIM:PERIM:F5
  0
3DFACE
  8
PERIM
 62
  8
 10
   960513.38520
 20
  1945569.14760
 30
       26.12130
 11
   960513.58020
 21
  1945569.23020
 31
       26.12130
 12
   960514.74960
 22
  1945566.46750
 32
       26.12130
 13
   960514.55450
 23
  1945566.38490
 33
       26.12130
999
PERIM:PERIM:F6
  0
3DFACE
  8
PERIM
 62
 15
 10
   960511.01880
 20
  1945568.14610
 30
       29.22950
 11
   960512.18820
 21
  1945565.38340
 31
       29.22950
 12
   960514.55450
 22
  1945566.38490
 32
       29.22950
 13
   960513.38520
 23
  1945569.14760
 33
       29.22950
999
PERIM:PERIM:F7
  0
3DFACE
  8
PERIM
 62
 15
 10
   960513.38520
 20
  1945569.14760
 30
       29.22950
 11
   960514.55450
 21
  1945566.38490
 31
       29.22950
 12
   960514.74960
 22
  1945566.46750
 32
       29.22950
 13
   960513.58020
 23
  1945569.23020
 33
       29.22950
999
CORE:CORE:F0
  0
3DFACE
  8
CORE
 62
 43
 10
   960513.58020
 20
  1945569.23020
 30
       29.22950
 11
   960513.58020
 21
  1945569.23020
 31
       26.12130
 12
   960514.74960
 22
  1945566.46750
 32
       26.12130
 13
   960514.74960
 23
  1945566.46750
 33
       29.22950
999
CORE:CORE:F1
  0
3DFACE
  8
CORE
 62
 43
 10
   960516.28900
 20
  1945567.11900
 30
       29.22950
 11
   960516.28900
 21
  1945567.11900
 31
       26.12130
 12
   960515.11960
 22
  1945569.88180
 32
       26.12130
 13
   960515.11960
 23
  1945569.88180
 33
       29.22950
999
CORE:CORE:F2
  0
3DFACE
  8
CORE
 62
 43
 10
   960514.74960
 20
  1945566.46750
 30
       29.22950
 11
   960514.74960
 21
  1945566.46750
 31
       26.12130
 12
   960516.28900
 22
  1945567.11900
 32
       26.12130
 13
   960516.28900
 23
  1945567.11900
 33
       29.22950
999
CORE:CORE:F3
  0
3DFACE
  8
CORE
 62
 43
 10
   960515.11960
 20
  1945569.88180
 30
       29.22950
 11
   960515.11960
 21
  1945569.88180
 31
       26.12130
 12
   960513.58020
 22
  1945569.23020
 32
       26.12130
 13
   960513.58020
 23
  1945569.23020
 33
       29.22950
999
CORE:CORE:F4
  0
3DFACE
  8
CORE
 62
  8
 10
   960513.58020
 20
  1945569.23020
 30
       26.12130
 11
   960515.00240
 21
  1945569.83210
 31
       26.12130
 12
   960516.17170
 22
  1945567.06940
 32
       26.12130
 13
   960514.74960
 23
  1945566.46750
 33
       26.12130
999
CORE:CORE:F5
  0
3DFACE
  8
CORE
 62
  8
 10
   960515.00240
 20
  1945569.83210
 30
       26.12130
 11
   960515.11960
 21
  1945569.88180
 31
       26.12130
 12
   960516.28900
 22
  1945567.11900
 32
       26.12130
 13
   960516.17170
 23
  1945567.06940
 33
       26.12130
999
CORE:CORE:F6
  0
3DFACE
  8
CORE
 62
 15
 10
   960513.58020
 20
  1945569.23020
 30
       29.22950
 11
   960514.74960
 21
  1945566.46750
 31
       29.22950
 12
   960516.17170
 22
  1945567.06940
 32
       29.22950
 13
   960515.00240
 23
  1945569.83210
 33
       29.22950
999
CORE:CORE:F7
  0
3DFACE
  8
CORE
 62
 15
 10
   960515.00240
 20
  1945569.83210
 30
       29.22950
 11
   960516.17170
 21
  1945567.06940
 31
       29.22950
 12
   960516.28900
 22
  1945567.11900
 32
       29.22950
 13
   960515.11960
 23
  1945569.88180
 33
       29.22950
  0
ENDSEC
  0
EOF
