  0
SECTION
  2
ENTITIES
999
DXF created from EnergyPlus
999
Program Version,EnergyPlus, Version 8.4.0-09f5359d8a, YMD=2023.08.02 14:39
999
Polygon Action,TRIANGULATE3DFACE
999
Color Scheme,Default
999
Text - True North
  0
TEXT
  8
1
  6
Continuous
 62
  3
 10
    99988.00000
 20
   100002.00000
 30
        0.10000
 40
 .25
  1
True North
 41
 0.0
  7
MONOTXT
210
0.0
220
0.0
230
1.0
999
Text - Building Title
  0
TEXT
  8
1
  6
Continuous
 62
  3
 10
    99985.00000
 20
    99998.00000
 30
        0.10000
 40
 .4
  1
Building - Building
 41
 0.0
  7
MONOTXT
210
0.0
220
0.0
230
1.0
999
North Arrow Stem
  0
3DFACE
  8
1
 62
  3
 10
    99989.00000
 20
   100002.00000
 30
        0.10000
 11
    99989.00000
 21
   100002.00000
 31
        0.00000
 12
    99989.00000
 22
    99999.00000
 32
        0.00000
 13
    99989.00000
 23
    99999.00000
 33
        0.10000
999
North Arrow Head 1
  0
3DFACE
  8
1
 62
  3
 10
    99989.00000
 20
   100002.00000
 30
        0.10000
 11
    99989.00000
 21
   100002.00000
 31
        0.00000
 12
    99988.50000
 22
   100001.13398
 32
        0.00000
 13
    99988.50000
 23
   100001.13398
 33
        0.10000
999
North Arrow Head 2
  0
3DFACE
  8
1
 62
  3
 10
    99989.00000
 20
   100002.00000
 30
        0.10000
 11
    99989.00000
 21
   100002.00000
 31
        0.00000
 12
    99989.50000
 22
   100001.13398
 32
        0.00000
 13
    99989.50000
 23
   100001.13398
 33
        0.10000
999
North Arrow Side 1
  0
3DFACE
  8
1
 62
  3
 10
    99988.50000
 20
   100003.50000
 30
        0.10000
 11
    99988.50000
 21
   100003.50000
 31
        0.00000
 12
    99988.50000
 22
   100002.50000
 32
        0.00000
 13
    99988.50000
 23
   100002.50000
 33
        0.10000
999
North Arrow Side 2
  0
3DFACE
  8
1
 62
  3
 10
    99988.50000
 20
   100003.50000
 30
        0.10000
 11
    99988.50000
 21
   100003.50000
 31
        0.00000
 12
    99989.50000
 22
   100002.50000
 32
        0.00000
 13
    99989.50000
 23
   100002.50000
 33
        0.10000
999
North Arrow Side 3
  0
3DFACE
  8
1
 62
  3
 10
    99989.50000
 20
   100003.50000
 30
        0.10000
 11
    99989.50000
 21
   100003.50000
 31
        0.00000
 12
    99989.50000
 22
   100002.50000
 32
        0.00000
 13
    99989.50000
 23
   100002.50000
 33
        0.10000
999
Zone Names
999
Zone=1:PERIM
999
Zone=2:CORE
999
Building Shading:SHADER_0
  0
3DFACE
  8
Building Shading
 62
195
 10
   959777.43750
 20
  1946570.00000
 30
       96.98660
 11
   959777.43750
 21
  1946570.00000
 31
       37.98660
 12
   959780.87500
 22
  1946570.87500
 32
       37.98660
 13
   959780.87500
 23
  1946570.87500
 33
       96.98660
999
Building Shading:Mir-SHADER_0
  0
3DFACE
  8
Building Shading
 62
195
 10
   959780.87500
 20
  1946570.87500
 30
       96.98660
 11
   959780.87500
 21
  1946570.87500
 31
       37.98660
 12
   959777.43750
 22
  1946570.00000
 32
       37.98660
 13
   959777.43750
 23
  1946570.00000
 33
       96.98660
999
Building Shading:SHADER_1
  0
3DFACE
  8
Building Shading
 62
195
 10
   959757.87500
 20
  1946563.50000
 30
       96.98660
 11
   959757.87500
 21
  1946563.50000
 31
       37.98660
 12
   959777.87500
 22
  1946568.25000
 32
       37.98660
 13
   959777.87500
 23
  1946568.25000
 33
       96.98660
999
Building Shading:Mir-SHADER_1
  0
3DFACE
  8
Building Shading
 62
195
 10
   959777.87500
 20
  1946568.25000
 30
       96.98660
 11
   959777.87500
 21
  1946568.25000
 31
       37.98660
 12
   959757.87500
 22
  1946563.50000
 32
       37.98660
 13
   959757.87500
 23
  1946563.50000
 33
       96.98660
999
Building Shading:SHADER_2
  0
3DFACE
  8
Building Shading
 62
195
 10
   959725.75000
 20
  1946559.37500
 30
       87.88830
 11
   959725.75000
 21
  1946559.37500
 31
       40.88830
 12
   959723.25000
 22
  1946571.37500
 32
       40.88830
 13
   959723.25000
 23
  1946571.37500
 33
       87.88830
999
Building Shading:Mir-SHADER_2
  0
3DFACE
  8
Building Shading
 62
195
 10
   959723.25000
 20
  1946571.37500
 30
       87.88830
 11
   959723.25000
 21
  1946571.37500
 31
       40.88830
 12
   959725.75000
 22
  1946559.37500
 32
       40.88830
 13
   959725.75000
 23
  1946559.37500
 33
       87.88830
999
Building Shading:SHADER_3
  0
3DFACE
  8
Building Shading
 62
195
 10
   959738.18750
 20
  1946485.12500
 30
       93.09530
 11
   959738.18750
 21
  1946485.12500
 31
       40.09530
 12
   959735.12500
 22
  1946484.50000
 32
       40.09530
 13
   959735.12500
 23
  1946484.50000
 33
       93.09530
999
Building Shading:Mir-SHADER_3
  0
3DFACE
  8
Building Shading
 62
195
 10
   959735.12500
 20
  1946484.50000
 30
       93.09530
 11
   959735.12500
 21
  1946484.50000
 31
       40.09530
 12
   959738.18750
 22
  1946485.12500
 32
       40.09530
 13
   959738.18750
 23
  1946485.12500
 33
       93.09530
999
Building Shading:SHADER_4
  0
3DFACE
  8
Building Shading
 62
195
 10
   959785.50000
 20
  1946495.50000
 30
       93.09530
 11
   959785.50000
 21
  1946495.50000
 31
       40.09530
 12
   959777.37500
 22
  1946493.62500
 32
       40.09530
 13
   959777.37500
 23
  1946493.62500
 33
       93.09530
999
Building Shading:Mir-SHADER_4
  0
3DFACE
  8
Building Shading
 62
195
 10
   959777.37500
 20
  1946493.62500
 30
       93.09530
 11
   959777.37500
 21
  1946493.62500
 31
       40.09530
 12
   959785.50000
 22
  1946495.50000
 32
       40.09530
 13
   959785.50000
 23
  1946495.50000
 33
       93.09530
999
PERIM:PERIM:F0
  0
3DFACE
  8
PERIM
 62
 43
 10
   959783.20090
 20
  1946560.30980
 30
       65.93700
 11
   959783.20090
 21
  1946560.30980
 31
       62.82870
 12
   959783.84370
 22
  1946557.37940
 32
       62.82870
 13
   959783.84370
 23
  1946557.37940
 33
       65.93700
999
PERIM:PERIM:F0:W0
  0
3DFACE
  8
PERIM
 62
143
 10
   959783.22230
 20
  1946560.21210
 30
       65.01080
 11
   959783.22230
 21
  1946560.21210
 31
       63.67870
 12
   959783.82220
 22
  1946557.47710
 32
       63.67870
 13
   959783.82220
 23
  1946557.47710
 33
       65.01080
999
PERIM:PERIM:F1
  0
3DFACE
  8
PERIM
 62
 43
 10
   959786.56040
 20
  1946557.97540
 30
       65.93700
 11
   959786.56040
 21
  1946557.97540
 31
       62.82870
 12
   959785.91770
 22
  1946560.90570
 32
       62.82870
 13
   959785.91770
 23
  1946560.90570
 33
       65.93700
999
PERIM:PERIM:F2
  0
3DFACE
  8
PERIM
 62
 43
 10
   959783.84370
 20
  1946557.37940
 30
       65.93700
 11
   959783.84370
 21
  1946557.37940
 31
       62.82870
 12
   959786.56040
 22
  1946557.97540
 32
       62.82870
 13
   959786.56040
 23
  1946557.97540
 33
       65.93700
999
PERIM:PERIM:F3
  0
3DFACE
  8
PERIM
 62
 43
 10
   959785.91770
 20
  1946560.90570
 30
       65.93700
 11
   959785.91770
 21
  1946560.90570
 31
       62.82870
 12
   959783.20090
 22
  1946560.30980
 32
       62.82870
 13
   959783.20090
 23
  1946560.30980
 33
       65.93700
999
PERIM:PERIM:F4
  0
3DFACE
  8
PERIM
 62
  8
 10
   959783.20090
 20
  1946560.30980
 30
       62.82870
 11
   959785.71080
 21
  1946560.86030
 31
       62.82870
 12
   959786.35360
 22
  1946557.93000
 32
       62.82870
 13
   959783.84370
 23
  1946557.37940
 33
       62.82870
999
PERIM:PERIM:F5
  0
3DFACE
  8
PERIM
 62
  8
 10
   959785.71080
 20
  1946560.86030
 30
       62.82870
 11
   959785.91770
 21
  1946560.90570
 31
       62.82870
 12
   959786.56040
 22
  1946557.97540
 32
       62.82870
 13
   959786.35360
 23
  1946557.93000
 33
       62.82870
999
PERIM:PERIM:F6
  0
3DFACE
  8
PERIM
 62
 15
 10
   959783.20090
 20
  1946560.30980
 30
       65.93700
 11
   959783.84370
 21
  1946557.37940
 31
       65.93700
 12
   959786.35360
 22
  1946557.93000
 32
       65.93700
 13
   959785.71080
 23
  1946560.86030
 33
       65.93700
999
PERIM:PERIM:F7
  0
3DFACE
  8
PERIM
 62
 15
 10
   959785.71080
 20
  1946560.86030
 30
       65.93700
 11
   959786.35360
 21
  1946557.93000
 31
       65.93700
 12
   959786.56040
 22
  1946557.97540
 32
       65.93700
 13
   959785.91770
 23
  1946560.90570
 33
       65.93700
999
CORE:CORE:F0
  0
3DFACE
  8
CORE
 62
 43
 10
   959785.91770
 20
  1946560.90570
 30
       65.93700
 11
   959785.91770
 21
  1946560.90570
 31
       62.82870
 12
   959786.56040
 22
  1946557.97540
 32
       62.82870
 13
   959786.56040
 23
  1946557.97540
 33
       65.93700
999
CORE:CORE:F1
  0
3DFACE
  8
CORE
 62
 43
 10
   959788.19320
 20
  1946558.33350
 30
       65.93700
 11
   959788.19320
 21
  1946558.33350
 31
       62.82870
 12
   959787.55040
 22
  1946561.26380
 32
       62.82870
 13
   959787.55040
 23
  1946561.26380
 33
       65.93700
999
CORE:CORE:F2
  0
3DFACE
  8
CORE
 62
 43
 10
   959786.56040
 20
  1946557.97540
 30
       65.93700
 11
   959786.56040
 21
  1946557.97540
 31
       62.82870
 12
   959788.19320
 22
  1946558.33350
 32
       62.82870
 13
   959788.19320
 23
  1946558.33350
 33
       65.93700
999
CORE:CORE:F3
  0
3DFACE
  8
CORE
 62
 43
 10
   959787.55040
 20
  1946561.26380
 30
       65.93700
 11
   959787.55040
 21
  1946561.26380
 31
       62.82870
 12
   959785.91770
 22
  1946560.90570
 32
       62.82870
 13
   959785.91770
 23
  1946560.90570
 33
       65.93700
999
CORE:CORE:F4
  0
3DFACE
  8
CORE
 62
  8
 10
   959785.91770
 20
  1946560.90570
 30
       62.82870
 11
   959787.42610
 21
  1946561.23660
 31
       62.82870
 12
   959788.06890
 22
  1946558.30620
 32
       62.82870
 13
   959786.56040
 23
  1946557.97540
 33
       62.82870
999
CORE:CORE:F5
  0
3DFACE
  8
CORE
 62
  8
 10
   959787.42610
 20
  1946561.23660
 30
       62.82870
 11
   959787.55040
 21
  1946561.26380
 31
       62.82870
 12
   959788.19320
 22
  1946558.33350
 32
       62.82870
 13
   959788.06890
 23
  1946558.30620
 33
       62.82870
999
CORE:CORE:F6
  0
3DFACE
  8
CORE
 62
 15
 10
   959785.91770
 20
  1946560.90570
 30
       65.93700
 11
   959786.56040
 21
  1946557.97540
 31
       65.93700
 12
   959788.06890
 22
  1946558.30620
 32
       65.93700
 13
   959787.42610
 23
  1946561.23660
 33
       65.93700
999
CORE:CORE:F7
  0
3DFACE
  8
CORE
 62
 15
 10
   959787.42610
 20
  1946561.23660
 30
       65.93700
 11
   959788.06890
 21
  1946558.30620
 31
       65.93700
 12
   959788.19320
 22
  1946558.33350
 32
       65.93700
 13
   959787.55040
 23
  1946561.26380
 33
       65.93700
  0
ENDSEC
  0
EOF
