  0
SECTION
  2
ENTITIES
999
DXF created from EnergyPlus
999
Program Version,EnergyPlus, Version 8.4.0-09f5359d8a, YMD=2023.08.02 14:39
999
Polygon Action,TRIANGULATE3DFACE
999
Color Scheme,Default
999
Text - True North
  0
TEXT
  8
1
  6
Continuous
 62
  3
 10
    99988.00000
 20
   100002.00000
 30
        0.10000
 40
 .25
  1
True North
 41
 0.0
  7
MONOTXT
210
0.0
220
0.0
230
1.0
999
Text - Building Title
  0
TEXT
  8
1
  6
Continuous
 62
  3
 10
    99985.00000
 20
    99998.00000
 30
        0.10000
 40
 .4
  1
Building - Building
 41
 0.0
  7
MONOTXT
210
0.0
220
0.0
230
1.0
999
North Arrow Stem
  0
3DFACE
  8
1
 62
  3
 10
    99989.00000
 20
   100002.00000
 30
        0.10000
 11
    99989.00000
 21
   100002.00000
 31
        0.00000
 12
    99989.00000
 22
    99999.00000
 32
        0.00000
 13
    99989.00000
 23
    99999.00000
 33
        0.10000
999
North Arrow Head 1
  0
3DFACE
  8
1
 62
  3
 10
    99989.00000
 20
   100002.00000
 30
        0.10000
 11
    99989.00000
 21
   100002.00000
 31
        0.00000
 12
    99988.50000
 22
   100001.13398
 32
        0.00000
 13
    99988.50000
 23
   100001.13398
 33
        0.10000
999
North Arrow Head 2
  0
3DFACE
  8
1
 62
  3
 10
    99989.00000
 20
   100002.00000
 30
        0.10000
 11
    99989.00000
 21
   100002.00000
 31
        0.00000
 12
    99989.50000
 22
   100001.13398
 32
        0.00000
 13
    99989.50000
 23
   100001.13398
 33
        0.10000
999
North Arrow Side 1
  0
3DFACE
  8
1
 62
  3
 10
    99988.50000
 20
   100003.50000
 30
        0.10000
 11
    99988.50000
 21
   100003.50000
 31
        0.00000
 12
    99988.50000
 22
   100002.50000
 32
        0.00000
 13
    99988.50000
 23
   100002.50000
 33
        0.10000
999
North Arrow Side 2
  0
3DFACE
  8
1
 62
  3
 10
    99988.50000
 20
   100003.50000
 30
        0.10000
 11
    99988.50000
 21
   100003.50000
 31
        0.00000
 12
    99989.50000
 22
   100002.50000
 32
        0.00000
 13
    99989.50000
 23
   100002.50000
 33
        0.10000
999
North Arrow Side 3
  0
3DFACE
  8
1
 62
  3
 10
    99989.50000
 20
   100003.50000
 30
        0.10000
 11
    99989.50000
 21
   100003.50000
 31
        0.00000
 12
    99989.50000
 22
   100002.50000
 32
        0.00000
 13
    99989.50000
 23
   100002.50000
 33
        0.10000
999
Zone Names
999
Zone=1:PERIM
999
Zone=2:CORE
999
Building Shading:SHADER_0
  0
3DFACE
  8
Building Shading
 62
195
 10
   959757.87500
 20
  1946563.50000
 30
       96.98660
 11
   959757.87500
 21
  1946563.50000
 31
       37.98660
 12
   959777.87500
 22
  1946568.25000
 32
       37.98660
 13
   959777.87500
 23
  1946568.25000
 33
       96.98660
999
Building Shading:Mir-SHADER_0
  0
3DFACE
  8
Building Shading
 62
195
 10
   959777.87500
 20
  1946568.25000
 30
       96.98660
 11
   959777.87500
 21
  1946568.25000
 31
       37.98660
 12
   959757.87500
 22
  1946563.50000
 32
       37.98660
 13
   959757.87500
 23
  1946563.50000
 33
       96.98660
999
Building Shading:SHADER_1
  0
3DFACE
  8
Building Shading
 62
195
 10
   959698.50000
 20
  1946553.50000
 30
       87.88830
 11
   959698.50000
 21
  1946553.50000
 31
       40.88830
 12
   959725.75000
 22
  1946559.37500
 32
       40.88830
 13
   959725.75000
 23
  1946559.37500
 33
       87.88830
999
Building Shading:Mir-SHADER_1
  0
3DFACE
  8
Building Shading
 62
195
 10
   959725.75000
 20
  1946559.37500
 30
       87.88830
 11
   959725.75000
 21
  1946559.37500
 31
       40.88830
 12
   959698.50000
 22
  1946553.50000
 32
       40.88830
 13
   959698.50000
 23
  1946553.50000
 33
       87.88830
999
Building Shading:SHADER_2
  0
3DFACE
  8
Building Shading
 62
195
 10
   959744.00000
 20
  1946488.12500
 30
       93.09530
 11
   959744.00000
 21
  1946488.12500
 31
       40.09530
 12
   959741.06250
 22
  1946487.50000
 32
       40.09530
 13
   959741.06250
 23
  1946487.50000
 33
       93.09530
999
Building Shading:Mir-SHADER_2
  0
3DFACE
  8
Building Shading
 62
195
 10
   959741.06250
 20
  1946487.50000
 30
       93.09530
 11
   959741.06250
 21
  1946487.50000
 31
       40.09530
 12
   959744.00000
 22
  1946488.12500
 32
       40.09530
 13
   959744.00000
 23
  1946488.12500
 33
       93.09530
999
Building Shading:SHADER_3
  0
3DFACE
  8
Building Shading
 62
195
 10
   959785.50000
 20
  1946495.50000
 30
       93.09530
 11
   959785.50000
 21
  1946495.50000
 31
       40.09530
 12
   959777.37500
 22
  1946493.62500
 32
       40.09530
 13
   959777.37500
 23
  1946493.62500
 33
       93.09530
999
Building Shading:Mir-SHADER_3
  0
3DFACE
  8
Building Shading
 62
195
 10
   959777.37500
 20
  1946493.62500
 30
       93.09530
 11
   959777.37500
 21
  1946493.62500
 31
       40.09530
 12
   959785.50000
 22
  1946495.50000
 32
       40.09530
 13
   959785.50000
 23
  1946495.50000
 33
       93.09530
999
PERIM:PERIM:F0
  0
3DFACE
  8
PERIM
 62
 43
 10
   959784.64490
 20
  1946553.72650
 30
       69.04220
 11
   959784.64490
 21
  1946553.72650
 31
       65.93400
 12
   959785.28770
 22
  1946550.79620
 32
       65.93400
 13
   959785.28770
 23
  1946550.79620
 33
       69.04220
999
PERIM:PERIM:F0:W0
  0
3DFACE
  8
PERIM
 62
143
 10
   959784.66640
 20
  1946553.62880
 30
       68.11610
 11
   959784.66640
 21
  1946553.62880
 31
       66.78400
 12
   959785.26630
 22
  1946550.89390
 32
       66.78400
 13
   959785.26630
 23
  1946550.89390
 33
       68.11610
999
PERIM:PERIM:F1
  0
3DFACE
  8
PERIM
 62
 43
 10
   959788.00450
 20
  1946551.39210
 30
       69.04220
 11
   959788.00450
 21
  1946551.39210
 31
       65.93400
 12
   959787.36170
 22
  1946554.32240
 32
       65.93400
 13
   959787.36170
 23
  1946554.32240
 33
       69.04220
999
PERIM:PERIM:F2
  0
3DFACE
  8
PERIM
 62
 43
 10
   959785.28770
 20
  1946550.79620
 30
       69.04220
 11
   959785.28770
 21
  1946550.79620
 31
       65.93400
 12
   959788.00450
 22
  1946551.39210
 32
       65.93400
 13
   959788.00450
 23
  1946551.39210
 33
       69.04220
999
PERIM:PERIM:F3
  0
3DFACE
  8
PERIM
 62
 43
 10
   959787.36170
 20
  1946554.32240
 30
       69.04220
 11
   959787.36170
 21
  1946554.32240
 31
       65.93400
 12
   959784.64490
 22
  1946553.72650
 32
       65.93400
 13
   959784.64490
 23
  1946553.72650
 33
       69.04220
999
PERIM:PERIM:F4
  0
3DFACE
  8
PERIM
 62
  8
 10
   959784.64490
 20
  1946553.72650
 30
       65.93400
 11
   959787.15480
 21
  1946554.27710
 31
       65.93400
 12
   959787.79760
 22
  1946551.34670
 32
       65.93400
 13
   959785.28770
 23
  1946550.79620
 33
       65.93400
999
PERIM:PERIM:F5
  0
3DFACE
  8
PERIM
 62
  8
 10
   959787.15480
 20
  1946554.27710
 30
       65.93400
 11
   959787.36170
 21
  1946554.32240
 31
       65.93400
 12
   959788.00450
 22
  1946551.39210
 32
       65.93400
 13
   959787.79760
 23
  1946551.34670
 33
       65.93400
999
PERIM:PERIM:F6
  0
3DFACE
  8
PERIM
 62
 15
 10
   959784.64490
 20
  1946553.72650
 30
       69.04220
 11
   959785.28770
 21
  1946550.79620
 31
       69.04220
 12
   959787.79760
 22
  1946551.34670
 32
       69.04220
 13
   959787.15480
 23
  1946554.27710
 33
       69.04220
999
PERIM:PERIM:F7
  0
3DFACE
  8
PERIM
 62
 15
 10
   959787.15480
 20
  1946554.27710
 30
       69.04220
 11
   959787.79760
 21
  1946551.34670
 31
       69.04220
 12
   959788.00450
 22
  1946551.39210
 32
       69.04220
 13
   959787.36170
 23
  1946554.32240
 33
       69.04220
999
CORE:CORE:F0
  0
3DFACE
  8
CORE
 62
 43
 10
   959787.36170
 20
  1946554.32240
 30
       69.04220
 11
   959787.36170
 21
  1946554.32240
 31
       65.93400
 12
   959788.00450
 22
  1946551.39210
 32
       65.93400
 13
   959788.00450
 23
  1946551.39210
 33
       69.04220
999
CORE:CORE:F1
  0
3DFACE
  8
CORE
 62
 43
 10
   959789.63730
 20
  1946551.75030
 30
       69.04220
 11
   959789.63730
 21
  1946551.75030
 31
       65.93400
 12
   959788.99450
 22
  1946554.68060
 32
       65.93400
 13
   959788.99450
 23
  1946554.68060
 33
       69.04220
999
CORE:CORE:F2
  0
3DFACE
  8
CORE
 62
 43
 10
   959788.00450
 20
  1946551.39210
 30
       69.04220
 11
   959788.00450
 21
  1946551.39210
 31
       65.93400
 12
   959789.63730
 22
  1946551.75030
 32
       65.93400
 13
   959789.63730
 23
  1946551.75030
 33
       69.04220
999
CORE:CORE:F3
  0
3DFACE
  8
CORE
 62
 43
 10
   959788.99450
 20
  1946554.68060
 30
       69.04220
 11
   959788.99450
 21
  1946554.68060
 31
       65.93400
 12
   959787.36170
 22
  1946554.32240
 32
       65.93400
 13
   959787.36170
 23
  1946554.32240
 33
       69.04220
999
CORE:CORE:F4
  0
3DFACE
  8
CORE
 62
  8
 10
   959787.36170
 20
  1946554.32240
 30
       65.93400
 11
   959788.87010
 21
  1946554.65330
 31
       65.93400
 12
   959789.51290
 22
  1946551.72300
 32
       65.93400
 13
   959788.00450
 23
  1946551.39210
 33
       65.93400
999
CORE:CORE:F5
  0
3DFACE
  8
CORE
 62
  8
 10
   959788.87010
 20
  1946554.65330
 30
       65.93400
 11
   959788.99450
 21
  1946554.68060
 31
       65.93400
 12
   959789.63730
 22
  1946551.75030
 32
       65.93400
 13
   959789.51290
 23
  1946551.72300
 33
       65.93400
999
CORE:CORE:F6
  0
3DFACE
  8
CORE
 62
 15
 10
   959787.36170
 20
  1946554.32240
 30
       69.04220
 11
   959788.00450
 21
  1946551.39210
 31
       69.04220
 12
   959789.51290
 22
  1946551.72300
 32
       69.04220
 13
   959788.87010
 23
  1946554.65330
 33
       69.04220
999
CORE:CORE:F7
  0
3DFACE
  8
CORE
 62
 15
 10
   959788.87010
 20
  1946554.65330
 30
       69.04220
 11
   959789.51290
 21
  1946551.72300
 31
       69.04220
 12
   959789.63730
 22
  1946551.75030
 32
       69.04220
 13
   959788.99450
 23
  1946554.68060
 33
       69.04220
  0
ENDSEC
  0
EOF
