  0
SECTION
  2
ENTITIES
999
DXF created from EnergyPlus
999
Program Version,EnergyPlus, Version 8.4.0-09f5359d8a, YMD=2023.08.02 14:39
999
Polygon Action,TRIANGULATE3DFACE
999
Color Scheme,Default
999
Text - True North
  0
TEXT
  8
1
  6
Continuous
 62
  3
 10
    99988.00000
 20
   100002.00000
 30
        0.10000
 40
 .25
  1
True North
 41
 0.0
  7
MONOTXT
210
0.0
220
0.0
230
1.0
999
Text - Building Title
  0
TEXT
  8
1
  6
Continuous
 62
  3
 10
    99985.00000
 20
    99998.00000
 30
        0.10000
 40
 .4
  1
Building - Building
 41
 0.0
  7
MONOTXT
210
0.0
220
0.0
230
1.0
999
North Arrow Stem
  0
3DFACE
  8
1
 62
  3
 10
    99989.00000
 20
   100002.00000
 30
        0.10000
 11
    99989.00000
 21
   100002.00000
 31
        0.00000
 12
    99989.00000
 22
    99999.00000
 32
        0.00000
 13
    99989.00000
 23
    99999.00000
 33
        0.10000
999
North Arrow Head 1
  0
3DFACE
  8
1
 62
  3
 10
    99989.00000
 20
   100002.00000
 30
        0.10000
 11
    99989.00000
 21
   100002.00000
 31
        0.00000
 12
    99988.50000
 22
   100001.13398
 32
        0.00000
 13
    99988.50000
 23
   100001.13398
 33
        0.10000
999
North Arrow Head 2
  0
3DFACE
  8
1
 62
  3
 10
    99989.00000
 20
   100002.00000
 30
        0.10000
 11
    99989.00000
 21
   100002.00000
 31
        0.00000
 12
    99989.50000
 22
   100001.13398
 32
        0.00000
 13
    99989.50000
 23
   100001.13398
 33
        0.10000
999
North Arrow Side 1
  0
3DFACE
  8
1
 62
  3
 10
    99988.50000
 20
   100003.50000
 30
        0.10000
 11
    99988.50000
 21
   100003.50000
 31
        0.00000
 12
    99988.50000
 22
   100002.50000
 32
        0.00000
 13
    99988.50000
 23
   100002.50000
 33
        0.10000
999
North Arrow Side 2
  0
3DFACE
  8
1
 62
  3
 10
    99988.50000
 20
   100003.50000
 30
        0.10000
 11
    99988.50000
 21
   100003.50000
 31
        0.00000
 12
    99989.50000
 22
   100002.50000
 32
        0.00000
 13
    99989.50000
 23
   100002.50000
 33
        0.10000
999
North Arrow Side 3
  0
3DFACE
  8
1
 62
  3
 10
    99989.50000
 20
   100003.50000
 30
        0.10000
 11
    99989.50000
 21
   100003.50000
 31
        0.00000
 12
    99989.50000
 22
   100002.50000
 32
        0.00000
 13
    99989.50000
 23
   100002.50000
 33
        0.10000
999
Zone Names
999
Zone=1:PERIM
999
Zone=2:CORE
999
Building Shading:SHADER_0
  0
3DFACE
  8
Building Shading
 62
195
 10
   959777.56250
 20
  1946569.62500
 30
       82.23660
 11
   959777.50000
 21
  1946569.87500
 31
       89.61160
 12
   959777.81250
 22
  1946568.37500
 32
       89.61160
 13
   959777.75000
 23
  1946568.62500
 33
       82.23660
999
Building Shading:Mir-SHADER_0
  0
3DFACE
  8
Building Shading
 62
195
 10
   959777.75000
 20
  1946568.62500
 30
       82.23660
 11
   959777.81250
 21
  1946568.37500
 31
       89.61160
 12
   959777.50000
 22
  1946569.87500
 32
       89.61160
 13
   959777.56250
 23
  1946569.62500
 33
       82.23660
999
Building Shading:SHADER_1
  0
3DFACE
  8
Building Shading
 62
195
 10
   959777.50000
 20
  1946569.87500
 30
       89.61160
 11
   959777.43750
 21
  1946570.00000
 31
       96.98660
 12
   959777.87500
 22
  1946568.25000
 32
       96.98660
 13
   959777.81250
 23
  1946568.37500
 33
       89.61160
999
Building Shading:Mir-SHADER_1
  0
3DFACE
  8
Building Shading
 62
195
 10
   959777.81250
 20
  1946568.37500
 30
       89.61160
 11
   959777.87500
 21
  1946568.25000
 31
       96.98660
 12
   959777.43750
 22
  1946570.00000
 32
       96.98660
 13
   959777.50000
 23
  1946569.87500
 33
       89.61160
999
Building Shading:SHADER_2
  0
3DFACE
  8
Building Shading
 62
195
 10
   959757.87500
 20
  1946563.50000
 30
       96.98660
 11
   959757.87500
 21
  1946563.50000
 31
       37.98660
 12
   959777.87500
 22
  1946568.25000
 32
       37.98660
 13
   959777.87500
 23
  1946568.25000
 33
       96.98660
999
Building Shading:Mir-SHADER_2
  0
3DFACE
  8
Building Shading
 62
195
 10
   959777.87500
 20
  1946568.25000
 30
       96.98660
 11
   959777.87500
 21
  1946568.25000
 31
       37.98660
 12
   959757.87500
 22
  1946563.50000
 32
       37.98660
 13
   959757.87500
 23
  1946563.50000
 33
       96.98660
999
PERIM:PERIM:F0
  0
3DFACE
  8
PERIM
 62
 43
 10
   959783.44080
 20
  1946559.21580
 30
       81.46330
 11
   959783.44080
 21
  1946559.21580
 31
       78.35500
 12
   959784.08360
 22
  1946556.28550
 32
       78.35500
 13
   959784.08360
 23
  1946556.28550
 33
       81.46330
999
PERIM:PERIM:F0:W0
  0
3DFACE
  8
PERIM
 62
143
 10
   959783.46230
 20
  1946559.11810
 30
       80.53710
 11
   959783.46230
 21
  1946559.11810
 31
       79.20500
 12
   959784.06220
 22
  1946556.38320
 32
       79.20500
 13
   959784.06220
 23
  1946556.38320
 33
       80.53710
999
PERIM:PERIM:F1
  0
3DFACE
  8
PERIM
 62
 43
 10
   959786.80040
 20
  1946556.88140
 30
       81.46330
 11
   959786.80040
 21
  1946556.88140
 31
       78.35500
 12
   959786.15760
 22
  1946559.81170
 32
       78.35500
 13
   959786.15760
 23
  1946559.81170
 33
       81.46330
999
PERIM:PERIM:F2
  0
3DFACE
  8
PERIM
 62
 43
 10
   959784.08360
 20
  1946556.28550
 30
       81.46330
 11
   959784.08360
 21
  1946556.28550
 31
       78.35500
 12
   959786.80040
 22
  1946556.88140
 32
       78.35500
 13
   959786.80040
 23
  1946556.88140
 33
       81.46330
999
PERIM:PERIM:F3
  0
3DFACE
  8
PERIM
 62
 43
 10
   959786.15760
 20
  1946559.81170
 30
       81.46330
 11
   959786.15760
 21
  1946559.81170
 31
       78.35500
 12
   959783.44080
 22
  1946559.21580
 32
       78.35500
 13
   959783.44080
 23
  1946559.21580
 33
       81.46330
999
PERIM:PERIM:F4
  0
3DFACE
  8
PERIM
 62
  8
 10
   959783.44080
 20
  1946559.21580
 30
       78.35500
 11
   959785.95070
 21
  1946559.76640
 31
       78.35500
 12
   959786.59350
 22
  1946556.83600
 32
       78.35500
 13
   959784.08360
 23
  1946556.28550
 33
       78.35500
999
PERIM:PERIM:F5
  0
3DFACE
  8
PERIM
 62
  8
 10
   959785.95070
 20
  1946559.76640
 30
       78.35500
 11
   959786.15760
 21
  1946559.81170
 31
       78.35500
 12
   959786.80040
 22
  1946556.88140
 32
       78.35500
 13
   959786.59350
 23
  1946556.83600
 33
       78.35500
999
PERIM:PERIM:F6
  0
3DFACE
  8
PERIM
 62
 15
 10
   959783.44080
 20
  1946559.21580
 30
       81.46330
 11
   959784.08360
 21
  1946556.28550
 31
       81.46330
 12
   959786.59350
 22
  1946556.83600
 32
       81.46330
 13
   959785.95070
 23
  1946559.76640
 33
       81.46330
999
PERIM:PERIM:F7
  0
3DFACE
  8
PERIM
 62
 15
 10
   959785.95070
 20
  1946559.76640
 30
       81.46330
 11
   959786.59350
 21
  1946556.83600
 31
       81.46330
 12
   959786.80040
 22
  1946556.88140
 32
       81.46330
 13
   959786.15760
 23
  1946559.81170
 33
       81.46330
999
CORE:CORE:F0
  0
3DFACE
  8
CORE
 62
 43
 10
   959786.15760
 20
  1946559.81170
 30
       81.46330
 11
   959786.15760
 21
  1946559.81170
 31
       78.35500
 12
   959786.80040
 22
  1946556.88140
 32
       78.35500
 13
   959786.80040
 23
  1946556.88140
 33
       81.46330
999
CORE:CORE:F1
  0
3DFACE
  8
CORE
 62
 43
 10
   959788.43320
 20
  1946557.23960
 30
       81.46330
 11
   959788.43320
 21
  1946557.23960
 31
       78.35500
 12
   959787.79040
 22
  1946560.16990
 32
       78.35500
 13
   959787.79040
 23
  1946560.16990
 33
       81.46330
999
CORE:CORE:F2
  0
3DFACE
  8
CORE
 62
 43
 10
   959786.80040
 20
  1946556.88140
 30
       81.46330
 11
   959786.80040
 21
  1946556.88140
 31
       78.35500
 12
   959788.43320
 22
  1946557.23960
 32
       78.35500
 13
   959788.43320
 23
  1946557.23960
 33
       81.46330
999
CORE:CORE:F3
  0
3DFACE
  8
CORE
 62
 43
 10
   959787.79040
 20
  1946560.16990
 30
       81.46330
 11
   959787.79040
 21
  1946560.16990
 31
       78.35500
 12
   959786.15760
 22
  1946559.81170
 32
       78.35500
 13
   959786.15760
 23
  1946559.81170
 33
       81.46330
999
CORE:CORE:F4
  0
3DFACE
  8
CORE
 62
  8
 10
   959786.15760
 20
  1946559.81170
 30
       78.35500
 11
   959787.66610
 21
  1946560.14260
 31
       78.35500
 12
   959788.30880
 22
  1946557.21230
 32
       78.35500
 13
   959786.80040
 23
  1946556.88140
 33
       78.35500
999
CORE:CORE:F5
  0
3DFACE
  8
CORE
 62
  8
 10
   959787.66610
 20
  1946560.14260
 30
       78.35500
 11
   959787.79040
 21
  1946560.16990
 31
       78.35500
 12
   959788.43320
 22
  1946557.23960
 32
       78.35500
 13
   959788.30880
 23
  1946557.21230
 33
       78.35500
999
CORE:CORE:F6
  0
3DFACE
  8
CORE
 62
 15
 10
   959786.15760
 20
  1946559.81170
 30
       81.46330
 11
   959786.80040
 21
  1946556.88140
 31
       81.46330
 12
   959788.30880
 22
  1946557.21230
 32
       81.46330
 13
   959787.66610
 23
  1946560.14260
 33
       81.46330
999
CORE:CORE:F7
  0
3DFACE
  8
CORE
 62
 15
 10
   959787.66610
 20
  1946560.14260
 30
       81.46330
 11
   959788.30880
 21
  1946557.21230
 31
       81.46330
 12
   959788.43320
 22
  1946557.23960
 32
       81.46330
 13
   959787.79040
 23
  1946560.16990
 33
       81.46330
  0
ENDSEC
  0
EOF
