  0
SECTION
  2
ENTITIES
999
DXF created from EnergyPlus
999
Program Version,EnergyPlus, Version 8.4.0-09f5359d8a, YMD=2023.08.02 14:39
999
Polygon Action,TRIANGULATE3DFACE
999
Color Scheme,Default
999
Text - True North
  0
TEXT
  8
1
  6
Continuous
 62
  3
 10
    99988.00000
 20
   100002.00000
 30
        0.10000
 40
 .25
  1
True North
 41
 0.0
  7
MONOTXT
210
0.0
220
0.0
230
1.0
999
Text - Building Title
  0
TEXT
  8
1
  6
Continuous
 62
  3
 10
    99985.00000
 20
    99998.00000
 30
        0.10000
 40
 .4
  1
Building - Building
 41
 0.0
  7
MONOTXT
210
0.0
220
0.0
230
1.0
999
North Arrow Stem
  0
3DFACE
  8
1
 62
  3
 10
    99989.00000
 20
   100002.00000
 30
        0.10000
 11
    99989.00000
 21
   100002.00000
 31
        0.00000
 12
    99989.00000
 22
    99999.00000
 32
        0.00000
 13
    99989.00000
 23
    99999.00000
 33
        0.10000
999
North Arrow Head 1
  0
3DFACE
  8
1
 62
  3
 10
    99989.00000
 20
   100002.00000
 30
        0.10000
 11
    99989.00000
 21
   100002.00000
 31
        0.00000
 12
    99988.50000
 22
   100001.13398
 32
        0.00000
 13
    99988.50000
 23
   100001.13398
 33
        0.10000
999
North Arrow Head 2
  0
3DFACE
  8
1
 62
  3
 10
    99989.00000
 20
   100002.00000
 30
        0.10000
 11
    99989.00000
 21
   100002.00000
 31
        0.00000
 12
    99989.50000
 22
   100001.13398
 32
        0.00000
 13
    99989.50000
 23
   100001.13398
 33
        0.10000
999
North Arrow Side 1
  0
3DFACE
  8
1
 62
  3
 10
    99988.50000
 20
   100003.50000
 30
        0.10000
 11
    99988.50000
 21
   100003.50000
 31
        0.00000
 12
    99988.50000
 22
   100002.50000
 32
        0.00000
 13
    99988.50000
 23
   100002.50000
 33
        0.10000
999
North Arrow Side 2
  0
3DFACE
  8
1
 62
  3
 10
    99988.50000
 20
   100003.50000
 30
        0.10000
 11
    99988.50000
 21
   100003.50000
 31
        0.00000
 12
    99989.50000
 22
   100002.50000
 32
        0.00000
 13
    99989.50000
 23
   100002.50000
 33
        0.10000
999
North Arrow Side 3
  0
3DFACE
  8
1
 62
  3
 10
    99989.50000
 20
   100003.50000
 30
        0.10000
 11
    99989.50000
 21
   100003.50000
 31
        0.00000
 12
    99989.50000
 22
   100002.50000
 32
        0.00000
 13
    99989.50000
 23
   100002.50000
 33
        0.10000
999
Zone Names
999
Zone=1:PERIM
999
Zone=2:CORE
999
PERIM:PERIM:F0
  0
3DFACE
  8
PERIM
 62
 43
 10
   959794.90080
 20
  1946562.31910
 30
       90.77910
 11
   959794.90080
 21
  1946562.31910
 31
       87.67080
 12
   959794.24180
 22
  1946565.24580
 32
       87.67080
 13
   959794.24180
 23
  1946565.24580
 33
       90.77910
999
PERIM:PERIM:F0:W0
  0
3DFACE
  8
PERIM
 62
143
 10
   959794.87890
 20
  1946562.41670
 30
       89.85290
 11
   959794.87890
 21
  1946562.41670
 31
       88.52080
 12
   959794.26380
 22
  1946565.14830
 32
       88.52080
 13
   959794.26380
 23
  1946565.14830
 33
       89.85290
999
PERIM:PERIM:F1
  0
3DFACE
  8
PERIM
 62
 43
 10
   959791.52840
 20
  1946564.63480
 30
       90.77910
 11
   959791.52840
 21
  1946564.63480
 31
       87.67080
 12
   959792.18740
 22
  1946561.70810
 32
       87.67080
 13
   959792.18740
 23
  1946561.70810
 33
       90.77910
999
PERIM:PERIM:F2
  0
3DFACE
  8
PERIM
 62
 43
 10
   959794.24180
 20
  1946565.24580
 30
       90.77910
 11
   959794.24180
 21
  1946565.24580
 31
       87.67080
 12
   959791.52840
 22
  1946564.63480
 32
       87.67080
 13
   959791.52840
 23
  1946564.63480
 33
       90.77910
999
PERIM:PERIM:F3
  0
3DFACE
  8
PERIM
 62
 43
 10
   959792.18740
 20
  1946561.70810
 30
       90.77910
 11
   959792.18740
 21
  1946561.70810
 31
       87.67080
 12
   959794.90080
 22
  1946562.31910
 32
       87.67080
 13
   959794.90080
 23
  1946562.31910
 33
       90.77910
999
PERIM:PERIM:F4
  0
3DFACE
  8
PERIM
 62
  8
 10
   959794.90080
 20
  1946562.31910
 30
       87.67080
 11
   959792.39400
 21
  1946561.75460
 31
       87.67080
 12
   959791.73500
 22
  1946564.68130
 32
       87.67080
 13
   959794.24180
 23
  1946565.24580
 33
       87.67080
999
PERIM:PERIM:F5
  0
3DFACE
  8
PERIM
 62
  8
 10
   959792.39400
 20
  1946561.75460
 30
       87.67080
 11
   959792.18740
 21
  1946561.70810
 31
       87.67080
 12
   959791.52840
 22
  1946564.63480
 32
       87.67080
 13
   959791.73500
 23
  1946564.68130
 33
       87.67080
999
PERIM:PERIM:F6
  0
3DFACE
  8
PERIM
 62
 15
 10
   959794.90080
 20
  1946562.31910
 30
       90.77910
 11
   959794.24180
 21
  1946565.24580
 31
       90.77910
 12
   959791.73500
 22
  1946564.68130
 32
       90.77910
 13
   959792.39400
 23
  1946561.75460
 33
       90.77910
999
PERIM:PERIM:F7
  0
3DFACE
  8
PERIM
 62
 15
 10
   959792.39400
 20
  1946561.75460
 30
       90.77910
 11
   959791.73500
 21
  1946564.68130
 31
       90.77910
 12
   959791.52840
 22
  1946564.63480
 32
       90.77910
 13
   959792.18740
 23
  1946561.70810
 33
       90.77910
999
CORE:CORE:F0
  0
3DFACE
  8
CORE
 62
 43
 10
   959792.18740
 20
  1946561.70810
 30
       90.77910
 11
   959792.18740
 21
  1946561.70810
 31
       87.67080
 12
   959791.52840
 22
  1946564.63480
 32
       87.67080
 13
   959791.52840
 23
  1946564.63480
 33
       90.77910
999
CORE:CORE:F1
  0
3DFACE
  8
CORE
 62
 43
 10
   959789.89760
 20
  1946564.26760
 30
       90.77910
 11
   959789.89760
 21
  1946564.26760
 31
       87.67080
 12
   959790.55670
 22
  1946561.34090
 32
       87.67080
 13
   959790.55670
 23
  1946561.34090
 33
       90.77910
999
CORE:CORE:F2
  0
3DFACE
  8
CORE
 62
 43
 10
   959791.52840
 20
  1946564.63480
 30
       90.77910
 11
   959791.52840
 21
  1946564.63480
 31
       87.67080
 12
   959789.89760
 22
  1946564.26760
 32
       87.67080
 13
   959789.89760
 23
  1946564.26760
 33
       90.77910
999
CORE:CORE:F3
  0
3DFACE
  8
CORE
 62
 43
 10
   959790.55670
 20
  1946561.34090
 30
       90.77910
 11
   959790.55670
 21
  1946561.34090
 31
       87.67080
 12
   959792.18740
 22
  1946561.70810
 32
       87.67080
 13
   959792.18740
 23
  1946561.70810
 33
       90.77910
999
CORE:CORE:F4
  0
3DFACE
  8
CORE
 62
  8
 10
   959792.18740
 20
  1946561.70810
 30
       87.67080
 11
   959790.68080
 21
  1946561.36880
 31
       87.67080
 12
   959790.02180
 22
  1946564.29560
 32
       87.67080
 13
   959791.52840
 23
  1946564.63480
 33
       87.67080
999
CORE:CORE:F5
  0
3DFACE
  8
CORE
 62
  8
 10
   959790.68080
 20
  1946561.36880
 30
       87.67080
 11
   959790.55670
 21
  1946561.34090
 31
       87.67080
 12
   959789.89760
 22
  1946564.26760
 32
       87.67080
 13
   959790.02180
 23
  1946564.29560
 33
       87.67080
999
CORE:CORE:F6
  0
3DFACE
  8
CORE
 62
 15
 10
   959792.18740
 20
  1946561.70810
 30
       90.77910
 11
   959791.52840
 21
  1946564.63480
 31
       90.77910
 12
   959790.02180
 22
  1946564.29560
 32
       90.77910
 13
   959790.68080
 23
  1946561.36880
 33
       90.77910
999
CORE:CORE:F7
  0
3DFACE
  8
CORE
 62
 15
 10
   959790.68080
 20
  1946561.36880
 30
       90.77910
 11
   959790.02180
 21
  1946564.29560
 31
       90.77910
 12
   959789.89760
 22
  1946564.26760
 32
       90.77910
 13
   959790.55670
 23
  1946561.34090
 33
       90.77910
  0
ENDSEC
  0
EOF
