  0
SECTION
  2
ENTITIES
999
DXF created from EnergyPlus
999
Program Version,EnergyPlus, Version 8.4.0-09f5359d8a, YMD=2023.08.02 14:39
999
Polygon Action,TRIANGULATE3DFACE
999
Color Scheme,Default
999
Text - True North
  0
TEXT
  8
1
  6
Continuous
 62
  3
 10
    99988.00000
 20
   100002.00000
 30
        0.10000
 40
 .25
  1
True North
 41
 0.0
  7
MONOTXT
210
0.0
220
0.0
230
1.0
999
Text - Building Title
  0
TEXT
  8
1
  6
Continuous
 62
  3
 10
    99985.00000
 20
    99998.00000
 30
        0.10000
 40
 .4
  1
Building - Building
 41
 0.0
  7
MONOTXT
210
0.0
220
0.0
230
1.0
999
North Arrow Stem
  0
3DFACE
  8
1
 62
  3
 10
    99989.00000
 20
   100002.00000
 30
        0.10000
 11
    99989.00000
 21
   100002.00000
 31
        0.00000
 12
    99989.00000
 22
    99999.00000
 32
        0.00000
 13
    99989.00000
 23
    99999.00000
 33
        0.10000
999
North Arrow Head 1
  0
3DFACE
  8
1
 62
  3
 10
    99989.00000
 20
   100002.00000
 30
        0.10000
 11
    99989.00000
 21
   100002.00000
 31
        0.00000
 12
    99988.50000
 22
   100001.13398
 32
        0.00000
 13
    99988.50000
 23
   100001.13398
 33
        0.10000
999
North Arrow Head 2
  0
3DFACE
  8
1
 62
  3
 10
    99989.00000
 20
   100002.00000
 30
        0.10000
 11
    99989.00000
 21
   100002.00000
 31
        0.00000
 12
    99989.50000
 22
   100001.13398
 32
        0.00000
 13
    99989.50000
 23
   100001.13398
 33
        0.10000
999
North Arrow Side 1
  0
3DFACE
  8
1
 62
  3
 10
    99988.50000
 20
   100003.50000
 30
        0.10000
 11
    99988.50000
 21
   100003.50000
 31
        0.00000
 12
    99988.50000
 22
   100002.50000
 32
        0.00000
 13
    99988.50000
 23
   100002.50000
 33
        0.10000
999
North Arrow Side 2
  0
3DFACE
  8
1
 62
  3
 10
    99988.50000
 20
   100003.50000
 30
        0.10000
 11
    99988.50000
 21
   100003.50000
 31
        0.00000
 12
    99989.50000
 22
   100002.50000
 32
        0.00000
 13
    99989.50000
 23
   100002.50000
 33
        0.10000
999
North Arrow Side 3
  0
3DFACE
  8
1
 62
  3
 10
    99989.50000
 20
   100003.50000
 30
        0.10000
 11
    99989.50000
 21
   100003.50000
 31
        0.00000
 12
    99989.50000
 22
   100002.50000
 32
        0.00000
 13
    99989.50000
 23
   100002.50000
 33
        0.10000
999
Zone Names
999
Zone=1:PERIM
999
Zone=2:CORE
999
Building Shading:SHADER_0
  0
3DFACE
  8
Building Shading
 62
195
 10
   959844.31250
 20
  1946518.75000
 30
       89.40830
 11
   959844.31250
 21
  1946518.75000
 31
       37.40830
 12
   959848.43750
 22
  1946499.62500
 32
       37.40830
 13
   959848.43750
 23
  1946499.62500
 33
       89.40830
999
Building Shading:Mir-SHADER_0
  0
3DFACE
  8
Building Shading
 62
195
 10
   959848.43750
 20
  1946499.62500
 30
       89.40830
 11
   959848.43750
 21
  1946499.62500
 31
       37.40830
 12
   959844.31250
 22
  1946518.75000
 32
       37.40830
 13
   959844.31250
 23
  1946518.75000
 33
       89.40830
999
Building Shading:SHADER_1
  0
3DFACE
  8
Building Shading
 62
195
 10
   959826.75000
 20
  1946562.87500
 30
       87.82830
 11
   959826.75000
 21
  1946562.87500
 31
       35.82830
 12
   959829.43750
 22
  1946551.12500
 32
       35.82830
 13
   959829.43750
 23
  1946551.12500
 33
       87.82830
999
Building Shading:Mir-SHADER_1
  0
3DFACE
  8
Building Shading
 62
195
 10
   959829.43750
 20
  1946551.12500
 30
       87.82830
 11
   959829.43750
 21
  1946551.12500
 31
       35.82830
 12
   959826.75000
 22
  1946562.87500
 32
       35.82830
 13
   959826.75000
 23
  1946562.87500
 33
       87.82830
999
Building Shading:SHADER_2
  0
3DFACE
  8
Building Shading
 62
195
 10
   959822.75000
 20
  1946589.87500
 30
       87.82830
 11
   959822.75000
 21
  1946589.87500
 31
       35.82830
 12
   959827.62500
 22
  1946568.25000
 32
       35.82830
 13
   959827.62500
 23
  1946568.25000
 33
       87.82830
999
Building Shading:Mir-SHADER_2
  0
3DFACE
  8
Building Shading
 62
195
 10
   959827.62500
 20
  1946568.25000
 30
       87.82830
 11
   959827.62500
 21
  1946568.25000
 31
       35.82830
 12
   959822.75000
 22
  1946589.87500
 32
       35.82830
 13
   959822.75000
 23
  1946589.87500
 33
       87.82830
999
PERIM:PERIM:F0
  0
3DFACE
  8
PERIM
 62
 43
 10
   959799.84750
 20
  1946539.65720
 30
       59.72640
 11
   959799.84750
 21
  1946539.65720
 31
       56.61820
 12
   959799.21970
 22
  1946542.59070
 32
       56.61820
 13
   959799.21970
 23
  1946542.59070
 33
       59.72640
999
PERIM:PERIM:F0:W0
  0
3DFACE
  8
PERIM
 62
143
 10
   959799.82660
 20
  1946539.75490
 30
       58.80030
 11
   959799.82660
 21
  1946539.75490
 31
       57.46820
 12
   959799.24060
 22
  1946542.49290
 32
       57.46820
 13
   959799.24060
 23
  1946542.49290
 33
       58.80030
999
PERIM:PERIM:F1
  0
3DFACE
  8
PERIM
 62
 43
 10
   959796.49990
 20
  1946542.00870
 30
       59.72640
 11
   959796.49990
 21
  1946542.00870
 31
       56.61820
 12
   959797.12770
 22
  1946539.07510
 32
       56.61820
 13
   959797.12770
 23
  1946539.07510
 33
       59.72640
999
PERIM:PERIM:F2
  0
3DFACE
  8
PERIM
 62
 43
 10
   959799.21970
 20
  1946542.59070
 30
       59.72640
 11
   959799.21970
 21
  1946542.59070
 31
       56.61820
 12
   959796.49990
 22
  1946542.00870
 32
       56.61820
 13
   959796.49990
 23
  1946542.00870
 33
       59.72640
999
PERIM:PERIM:F3
  0
3DFACE
  8
PERIM
 62
 43
 10
   959797.12770
 20
  1946539.07510
 30
       59.72640
 11
   959797.12770
 21
  1946539.07510
 31
       56.61820
 12
   959799.84750
 22
  1946539.65720
 32
       56.61820
 13
   959799.84750
 23
  1946539.65720
 33
       59.72640
999
PERIM:PERIM:F4
  0
3DFACE
  8
PERIM
 62
  8
 10
   959799.84750
 20
  1946539.65720
 30
       56.61820
 11
   959797.33480
 21
  1946539.11940
 31
       56.61820
 12
   959796.70700
 22
  1946542.05300
 32
       56.61820
 13
   959799.21970
 23
  1946542.59070
 33
       56.61820
999
PERIM:PERIM:F5
  0
3DFACE
  8
PERIM
 62
  8
 10
   959797.33480
 20
  1946539.11940
 30
       56.61820
 11
   959797.12770
 21
  1946539.07510
 31
       56.61820
 12
   959796.49990
 22
  1946542.00870
 32
       56.61820
 13
   959796.70700
 23
  1946542.05300
 33
       56.61820
999
PERIM:PERIM:F6
  0
3DFACE
  8
PERIM
 62
 15
 10
   959799.84750
 20
  1946539.65720
 30
       59.72640
 11
   959799.21970
 21
  1946542.59070
 31
       59.72640
 12
   959796.70700
 22
  1946542.05300
 32
       59.72640
 13
   959797.33480
 23
  1946539.11940
 33
       59.72640
999
PERIM:PERIM:F7
  0
3DFACE
  8
PERIM
 62
 15
 10
   959797.33480
 20
  1946539.11940
 30
       59.72640
 11
   959796.70700
 21
  1946542.05300
 31
       59.72640
 12
   959796.49990
 22
  1946542.00870
 32
       59.72640
 13
   959797.12770
 23
  1946539.07510
 33
       59.72640
999
CORE:CORE:F0
  0
3DFACE
  8
CORE
 62
 43
 10
   959797.12770
 20
  1946539.07510
 30
       59.72640
 11
   959797.12770
 21
  1946539.07510
 31
       56.61820
 12
   959796.49990
 22
  1946542.00870
 32
       56.61820
 13
   959796.49990
 23
  1946542.00870
 33
       59.72640
999
CORE:CORE:F1
  0
3DFACE
  8
CORE
 62
 43
 10
   959794.86530
 20
  1946541.65880
 30
       59.72640
 11
   959794.86530
 21
  1946541.65880
 31
       56.61820
 12
   959795.49310
 22
  1946538.72530
 32
       56.61820
 13
   959795.49310
 23
  1946538.72530
 33
       59.72640
999
CORE:CORE:F2
  0
3DFACE
  8
CORE
 62
 43
 10
   959796.49990
 20
  1946542.00870
 30
       59.72640
 11
   959796.49990
 21
  1946542.00870
 31
       56.61820
 12
   959794.86530
 22
  1946541.65880
 32
       56.61820
 13
   959794.86530
 23
  1946541.65880
 33
       59.72640
999
CORE:CORE:F3
  0
3DFACE
  8
CORE
 62
 43
 10
   959795.49310
 20
  1946538.72530
 30
       59.72640
 11
   959795.49310
 21
  1946538.72530
 31
       56.61820
 12
   959797.12770
 22
  1946539.07510
 32
       56.61820
 13
   959797.12770
 23
  1946539.07510
 33
       59.72640
999
CORE:CORE:F4
  0
3DFACE
  8
CORE
 62
  8
 10
   959797.12770
 20
  1946539.07510
 30
       56.61820
 11
   959795.61760
 21
  1946538.75190
 31
       56.61820
 12
   959794.98980
 22
  1946541.68550
 32
       56.61820
 13
   959796.49990
 23
  1946542.00870
 33
       56.61820
999
CORE:CORE:F5
  0
3DFACE
  8
CORE
 62
  8
 10
   959795.61760
 20
  1946538.75190
 30
       56.61820
 11
   959795.49310
 21
  1946538.72530
 31
       56.61820
 12
   959794.86530
 22
  1946541.65880
 32
       56.61820
 13
   959794.98980
 23
  1946541.68550
 33
       56.61820
999
CORE:CORE:F6
  0
3DFACE
  8
CORE
 62
 15
 10
   959797.12770
 20
  1946539.07510
 30
       59.72640
 11
   959796.49990
 21
  1946542.00870
 31
       59.72640
 12
   959794.98980
 22
  1946541.68550
 32
       59.72640
 13
   959795.61760
 23
  1946538.75190
 33
       59.72640
999
CORE:CORE:F7
  0
3DFACE
  8
CORE
 62
 15
 10
   959795.61760
 20
  1946538.75190
 30
       59.72640
 11
   959794.98980
 21
  1946541.68550
 31
       59.72640
 12
   959794.86530
 22
  1946541.65880
 32
       59.72640
 13
   959795.49310
 23
  1946538.72530
 33
       59.72640
  0
ENDSEC
  0
EOF
