  0
SECTION
  2
ENTITIES
999
DXF created from EnergyPlus
999
Program Version,EnergyPlus, Version 8.4.0-09f5359d8a, YMD=2023.08.02 14:39
999
Polygon Action,TRIANGULATE3DFACE
999
Color Scheme,Default
999
Text - True North
  0
TEXT
  8
1
  6
Continuous
 62
  3
 10
    99988.00000
 20
   100002.00000
 30
        0.10000
 40
 .25
  1
True North
 41
 0.0
  7
MONOTXT
210
0.0
220
0.0
230
1.0
999
Text - Building Title
  0
TEXT
  8
1
  6
Continuous
 62
  3
 10
    99985.00000
 20
    99998.00000
 30
        0.10000
 40
 .4
  1
Building - Building
 41
 0.0
  7
MONOTXT
210
0.0
220
0.0
230
1.0
999
North Arrow Stem
  0
3DFACE
  8
1
 62
  3
 10
    99989.00000
 20
   100002.00000
 30
        0.10000
 11
    99989.00000
 21
   100002.00000
 31
        0.00000
 12
    99989.00000
 22
    99999.00000
 32
        0.00000
 13
    99989.00000
 23
    99999.00000
 33
        0.10000
999
North Arrow Head 1
  0
3DFACE
  8
1
 62
  3
 10
    99989.00000
 20
   100002.00000
 30
        0.10000
 11
    99989.00000
 21
   100002.00000
 31
        0.00000
 12
    99988.50000
 22
   100001.13398
 32
        0.00000
 13
    99988.50000
 23
   100001.13398
 33
        0.10000
999
North Arrow Head 2
  0
3DFACE
  8
1
 62
  3
 10
    99989.00000
 20
   100002.00000
 30
        0.10000
 11
    99989.00000
 21
   100002.00000
 31
        0.00000
 12
    99989.50000
 22
   100001.13398
 32
        0.00000
 13
    99989.50000
 23
   100001.13398
 33
        0.10000
999
North Arrow Side 1
  0
3DFACE
  8
1
 62
  3
 10
    99988.50000
 20
   100003.50000
 30
        0.10000
 11
    99988.50000
 21
   100003.50000
 31
        0.00000
 12
    99988.50000
 22
   100002.50000
 32
        0.00000
 13
    99988.50000
 23
   100002.50000
 33
        0.10000
999
North Arrow Side 2
  0
3DFACE
  8
1
 62
  3
 10
    99988.50000
 20
   100003.50000
 30
        0.10000
 11
    99988.50000
 21
   100003.50000
 31
        0.00000
 12
    99989.50000
 22
   100002.50000
 32
        0.00000
 13
    99989.50000
 23
   100002.50000
 33
        0.10000
999
North Arrow Side 3
  0
3DFACE
  8
1
 62
  3
 10
    99989.50000
 20
   100003.50000
 30
        0.10000
 11
    99989.50000
 21
   100003.50000
 31
        0.00000
 12
    99989.50000
 22
   100002.50000
 32
        0.00000
 13
    99989.50000
 23
   100002.50000
 33
        0.10000
999
Zone Names
999
Zone=1:PERIM
999
Zone=2:CORE
999
Building Shading:SHADER_0
  0
3DFACE
  8
Building Shading
 62
195
 10
   959790.18750
 20
  1946237.62500
 30
       98.60770
 11
   959790.18750
 21
  1946237.62500
 31
       52.60770
 12
   959840.62500
 22
  1946256.37500
 32
       52.60770
 13
   959840.62500
 23
  1946256.37500
 33
       98.60770
999
Building Shading:Mir-SHADER_0
  0
3DFACE
  8
Building Shading
 62
195
 10
   959840.62500
 20
  1946256.37500
 30
       98.60770
 11
   959840.62500
 21
  1946256.37500
 31
       52.60770
 12
   959790.18750
 22
  1946237.62500
 32
       52.60770
 13
   959790.18750
 23
  1946237.62500
 33
       98.60770
999
Building Shading:SHADER_1
  0
3DFACE
  8
Building Shading
 62
195
 10
   959843.06250
 20
  1946214.37500
 30
       76.68160
 11
   959843.06250
 21
  1946214.37500
 31
       54.68160
 12
   959838.31250
 22
  1946227.62500
 32
       54.68160
 13
   959838.31250
 23
  1946227.62500
 33
       76.68160
999
Building Shading:Mir-SHADER_1
  0
3DFACE
  8
Building Shading
 62
195
 10
   959838.31250
 20
  1946227.62500
 30
       76.68160
 11
   959838.31250
 21
  1946227.62500
 31
       54.68160
 12
   959843.06250
 22
  1946214.37500
 32
       54.68160
 13
   959843.06250
 23
  1946214.37500
 33
       76.68160
999
Building Shading:SHADER_2
  0
3DFACE
  8
Building Shading
 62
195
 10
   959850.18750
 20
  1946208.00000
 30
       66.88110
 11
   959850.18750
 21
  1946208.00000
 31
       54.88110
 12
   959848.87500
 22
  1946211.75000
 32
       54.88110
 13
   959848.87500
 23
  1946211.75000
 33
       66.88110
999
Building Shading:Mir-SHADER_2
  0
3DFACE
  8
Building Shading
 62
195
 10
   959848.87500
 20
  1946211.75000
 30
       66.88110
 11
   959848.87500
 21
  1946211.75000
 31
       54.88110
 12
   959850.18750
 22
  1946208.00000
 32
       54.88110
 13
   959850.18750
 23
  1946208.00000
 33
       66.88110
999
Building Shading:SHADER_3
  0
3DFACE
  8
Building Shading
 62
195
 10
   959851.25000
 20
  1946208.37500
 30
       66.88110
 11
   959851.25000
 21
  1946208.37500
 31
       54.88110
 12
   959850.18750
 22
  1946208.00000
 32
       54.88110
 13
   959850.18750
 23
  1946208.00000
 33
       66.88110
999
Building Shading:Mir-SHADER_3
  0
3DFACE
  8
Building Shading
 62
195
 10
   959850.18750
 20
  1946208.00000
 30
       66.88110
 11
   959850.18750
 21
  1946208.00000
 31
       54.88110
 12
   959851.25000
 22
  1946208.37500
 32
       54.88110
 13
   959851.25000
 23
  1946208.37500
 33
       66.88110
999
Building Shading:SHADER_4
  0
3DFACE
  8
Building Shading
 62
195
 10
   959853.87500
 20
  1946200.87500
 30
       66.88110
 11
   959853.87500
 21
  1946200.87500
 31
       54.88110
 12
   959851.25000
 22
  1946208.37500
 32
       54.88110
 13
   959851.25000
 23
  1946208.37500
 33
       66.88110
999
Building Shading:Mir-SHADER_4
  0
3DFACE
  8
Building Shading
 62
195
 10
   959851.25000
 20
  1946208.37500
 30
       66.88110
 11
   959851.25000
 21
  1946208.37500
 31
       54.88110
 12
   959853.87500
 22
  1946200.87500
 32
       54.88110
 13
   959853.87500
 23
  1946200.87500
 33
       66.88110
999
PERIM:PERIM:F0
  0
3DFACE
  8
PERIM
 62
 43
 10
   959851.73270
 20
  1946213.15580
 30
       66.86450
 11
   959851.73270
 21
  1946213.15580
 31
       63.75620
 12
   959852.76570
 22
  1946210.33930
 32
       63.75620
 13
   959852.76570
 23
  1946210.33930
 33
       66.86450
999
PERIM:PERIM:F0:W0
  0
3DFACE
  8
PERIM
 62
143
 10
   959851.76720
 20
  1946213.06190
 30
       65.93830
 11
   959851.76720
 21
  1946213.06190
 31
       64.60620
 12
   959852.73130
 22
  1946210.43310
 32
       64.60620
 13
   959852.73130
 23
  1946210.43310
 33
       65.93830
999
PERIM:PERIM:F1
  0
3DFACE
  8
PERIM
 62
 43
 10
   959855.37700
 20
  1946211.29690
 30
       66.86450
 11
   959855.37700
 21
  1946211.29690
 31
       63.75620
 12
   959854.34410
 22
  1946214.11350
 32
       63.75620
 13
   959854.34410
 23
  1946214.11350
 33
       66.86450
999
PERIM:PERIM:F2
  0
3DFACE
  8
PERIM
 62
 43
 10
   959852.76570
 20
  1946210.33930
 30
       66.86450
 11
   959852.76570
 21
  1946210.33930
 31
       63.75620
 12
   959855.37700
 22
  1946211.29690
 32
       63.75620
 13
   959855.37700
 23
  1946211.29690
 33
       66.86450
999
PERIM:PERIM:F3
  0
3DFACE
  8
PERIM
 62
 43
 10
   959854.34410
 20
  1946214.11350
 30
       66.86450
 11
   959854.34410
 21
  1946214.11350
 31
       63.75620
 12
   959851.73270
 22
  1946213.15580
 32
       63.75620
 13
   959851.73270
 23
  1946213.15580
 33
       66.86450
999
PERIM:PERIM:F4
  0
3DFACE
  8
PERIM
 62
  8
 10
   959851.73270
 20
  1946213.15580
 30
       63.75620
 11
   959854.14520
 21
  1946214.04060
 31
       63.75620
 12
   959855.17810
 22
  1946211.22400
 32
       63.75620
 13
   959852.76570
 23
  1946210.33930
 33
       63.75620
999
PERIM:PERIM:F5
  0
3DFACE
  8
PERIM
 62
  8
 10
   959854.14520
 20
  1946214.04060
 30
       63.75620
 11
   959854.34410
 21
  1946214.11350
 31
       63.75620
 12
   959855.37700
 22
  1946211.29690
 32
       63.75620
 13
   959855.17810
 23
  1946211.22400
 33
       63.75620
999
PERIM:PERIM:F6
  0
3DFACE
  8
PERIM
 62
 15
 10
   959851.73270
 20
  1946213.15580
 30
       66.86450
 11
   959852.76570
 21
  1946210.33930
 31
       66.86450
 12
   959855.17810
 22
  1946211.22400
 32
       66.86450
 13
   959854.14520
 23
  1946214.04060
 33
       66.86450
999
PERIM:PERIM:F7
  0
3DFACE
  8
PERIM
 62
 15
 10
   959854.14520
 20
  1946214.04060
 30
       66.86450
 11
   959855.17810
 21
  1946211.22400
 31
       66.86450
 12
   959855.37700
 22
  1946211.29690
 32
       66.86450
 13
   959854.34410
 23
  1946214.11350
 33
       66.86450
999
CORE:CORE:F0
  0
3DFACE
  8
CORE
 62
 43
 10
   959854.34410
 20
  1946214.11350
 30
       66.86450
 11
   959854.34410
 21
  1946214.11350
 31
       63.75620
 12
   959855.37700
 22
  1946211.29690
 32
       63.75620
 13
   959855.37700
 23
  1946211.29690
 33
       66.86450
999
CORE:CORE:F1
  0
3DFACE
  8
CORE
 62
 43
 10
   959856.94640
 20
  1946211.87250
 30
       66.86450
 11
   959856.94640
 21
  1946211.87250
 31
       63.75620
 12
   959855.91340
 22
  1946214.68900
 32
       63.75620
 13
   959855.91340
 23
  1946214.68900
 33
       66.86450
999
CORE:CORE:F2
  0
3DFACE
  8
CORE
 62
 43
 10
   959855.37700
 20
  1946211.29690
 30
       66.86450
 11
   959855.37700
 21
  1946211.29690
 31
       63.75620
 12
   959856.94640
 22
  1946211.87250
 32
       63.75620
 13
   959856.94640
 23
  1946211.87250
 33
       66.86450
999
CORE:CORE:F3
  0
3DFACE
  8
CORE
 62
 43
 10
   959855.91340
 20
  1946214.68900
 30
       66.86450
 11
   959855.91340
 21
  1946214.68900
 31
       63.75620
 12
   959854.34410
 22
  1946214.11350
 32
       63.75620
 13
   959854.34410
 23
  1946214.11350
 33
       66.86450
999
CORE:CORE:F4
  0
3DFACE
  8
CORE
 62
  8
 10
   959854.34410
 20
  1946214.11350
 30
       63.75620
 11
   959855.79390
 21
  1946214.64520
 31
       63.75620
 12
   959856.82690
 22
  1946211.82860
 32
       63.75620
 13
   959855.37700
 23
  1946211.29690
 33
       63.75620
999
CORE:CORE:F5
  0
3DFACE
  8
CORE
 62
  8
 10
   959855.79390
 20
  1946214.64520
 30
       63.75620
 11
   959855.91340
 21
  1946214.68900
 31
       63.75620
 12
   959856.94640
 22
  1946211.87250
 32
       63.75620
 13
   959856.82690
 23
  1946211.82860
 33
       63.75620
999
CORE:CORE:F6
  0
3DFACE
  8
CORE
 62
 15
 10
   959854.34410
 20
  1946214.11350
 30
       66.86450
 11
   959855.37700
 21
  1946211.29690
 31
       66.86450
 12
   959856.82690
 22
  1946211.82860
 32
       66.86450
 13
   959855.79390
 23
  1946214.64520
 33
       66.86450
999
CORE:CORE:F7
  0
3DFACE
  8
CORE
 62
 15
 10
   959855.79390
 20
  1946214.64520
 30
       66.86450
 11
   959856.82690
 21
  1946211.82860
 31
       66.86450
 12
   959856.94640
 22
  1946211.87250
 32
       66.86450
 13
   959855.91340
 23
  1946214.68900
 33
       66.86450
  0
ENDSEC
  0
EOF
