Program Version,EnergyPlus, Version 8.4.0-09f5359d8a, YMD=2023.08.02 14:39
! <Version>, Version ID
 Version, 8.4
! <Timesteps per Hour>, #TimeSteps, Minutes per TimeStep {minutes}
 Timesteps per Hour,  4, 15
! <System Convergence Limits>, Minimum System TimeStep {minutes}, Max HVAC Iterations, Minimum Plant Iterations, Maximum Plant Iterations
 System Convergence Limits, 1, 50, 2, 8
! <Simulation Control>, Do Zone Sizing, Do System Sizing, Do Plant Sizing, Do Design Days, Do Weather Simulation, Do HVAC Sizing Simulation
 Simulation Control, No, No, No, No, Yes, No
! <Output Reporting Tolerances>, Tolerance for Time Heating Setpoint Not Met, Tolerance for Zone Cooling Setpoint Not Met Time
 Output Reporting Tolerances, 0.200, 0.200, 
! <Site:GroundTemperature:BuildingSurface>, Months From Jan to Dec {C}
 Site:GroundTemperature:BuildingSurface,  18.00,  18.00,  18.00,  18.00,  18.00,  18.00,  18.00,  18.00,  18.00,  18.00,  18.00,  18.00
! <Site:GroundTemperature:FCfactorMethod>, Months From Jan to Dec {C}
 Site:GroundTemperature:FCfactorMethod,   0.47,   2.86,   7.51,  11.91,  20.23,  24.61,  25.82,  23.60,  18.46,  12.07,   5.77,   1.61
! <Site:GroundTemperature:Shallow>, Months From Jan to Dec {C}
 Site:GroundTemperature:Shallow,  13.00,  13.00,  13.00,  13.00,  13.00,  13.00,  13.00,  13.00,  13.00,  13.00,  13.00,  13.00
! <Site:GroundTemperature:Deep>, Months From Jan to Dec {C}
 Site:GroundTemperature:Deep,  16.00,  16.00,  16.00,  16.00,  16.00,  16.00,  16.00,  16.00,  16.00,  16.00,  16.00,  16.00
! <Site:GroundReflectance>, Months From Jan to Dec {dimensionless}
 Site:GroundReflectance,  0.20,  0.20,  0.20,  0.20,  0.20,  0.20,  0.20,  0.20,  0.20,  0.20,  0.20,  0.20
! <Site:GroundReflectance:SnowModifier>, Normal, Daylighting {dimensionless}
 Site:GroundReflectance:SnowModifier,   1.000,   1.000
! <Site:GroundReflectance:Snow>, Months From Jan to Dec {dimensionless}
 Site:GroundReflectance:Snow,  0.20,  0.20,  0.20,  0.20,  0.20,  0.20,  0.20,  0.20,  0.20,  0.20,  0.20,  0.20
! <Site:GroundReflectance:Snow:Daylighting>, Months From Jan to Dec {dimensionless}
 Site:GroundReflectance:Snow:Daylighting,  0.20,  0.20,  0.20,  0.20,  0.20,  0.20,  0.20,  0.20,  0.20,  0.20,  0.20,  0.20
! <Environment:Weather Station>,Wind Sensor Height Above Ground {m},Wind Speed Profile Exponent {},Wind Speed Profile Boundary Layer Thickness {m},Air Temperature Sensor Height Above Ground {m},Wind Speed Modifier Coefficient [Internal],Temperature Modifier Coefficient [Internal]
Environment:Weather Station,10.000,0.140,270.000,1.500,1.586,9.750E-003
! <Site:Location>, Location Name, Latitude {N+/S- Deg}, Longitude {E+/W- Deg},  Time Zone Number {GMT+/-}, Elevation {m},  Standard Pressure at Elevation {Pa}, Standard RhoAir at Elevation
Site:Location,Seoul.WS SO KOR SRC-TMYx WMO#=471080,37.57,126.97,9.00,87.10,100283,1.1919
! <Building Information>, Building Name,North Axis {deg},Terrain,  Loads Convergence Tolerance Value,Temperature Convergence Tolerance Value,  Solar Distribution,Maximum Number of Warmup Days,Minimum Number of Warmup Days
 Building Information,Building,0.000,Suburbs,4.00000E-002,0.40000,FullExterior,25,6
! <Inside Convection Algorithm>, Algorithm {Simple | TARP | CeilingDiffuser | AdaptiveConvectionAlgorithm}
Inside Convection Algorithm,TARP
! <Outside Convection Algorithm>, Algorithm {SimpleCombined | TARP | MoWitt | DOE-2 | AdaptiveConvectionAlgorithm}
Outside Convection Algorithm,DOE-2
! <Sky Radiance Distribution>, Value {Anisotropic}
Sky Radiance Distribution,Anisotropic
! <Zone Air Solution Algorithm>, Value {ThirdOrderBackwardDifference | AnalyticalSolution | EulerMethod}
 Zone Air Solution Algorithm, ThirdOrderBackwardDifference
! <Zone Air Carbon Dioxide Balance Simulation>, Simulation {Yes/No}, Carbon Dioxide Concentration
 Zone Air Carbon Dioxide Balance Simulation, No,N/A
! <Zone Air Generic Contaminant Balance Simulation>, Simulation {Yes/No}, Generic Contaminant Concentration
 Zone Air Generic Contaminant Balance Simulation, No,N/A
! <Zone Air Mass Flow Balance Simulation>, Enforce Mass Balance, Adjust Zone Mixing, Adjust Zone Infiltration {AddInfiltration | AdjustInfiltration | None}, Infiltration Zones {MixingSourceZonesOnly | AllZones}
 Zone Air Mass Flow Balance Simulation, No,N/A,N/A,N/A
! <Environment:Site Atmospheric Variation>,Wind Speed Profile Exponent {},Wind Speed Profile Boundary Layer Thickness {m},Air Temperature Gradient Coefficient {K/m}
Environment:Site Atmospheric Variation,0.220,370.000,6.500000E-003
! <SurfaceGeometry>,Starting Corner,Vertex Input Direction,Coordinate System,Daylight Reference Point Coordinate System,Rectangular (Simple) Surface Coordinate System
 Surface Geometry,LowerLeftCorner,Counterclockwise,WorldCoordinateSystem,RelativeCoordinateSystem,RelativeToZoneOrigin
! <Surface Heat Transfer Algorithm>, Value {CTF - ConductionTransferFunction | EMPD - MoisturePenetrationDepthConductionTransferFunction | CondFD - ConductionFiniteDifference | HAMT - CombinedHeatAndMoistureFiniteElement} - Description,Inside Surface Max Temperature Limit{C}, Surface Convection Coefficient Lower Limit {W/m2-K}, Surface Convection Coefficient Upper Limit {W/m2-K}
Surface Heat Transfer Algorithm, CTF - ConductionTransferFunction,200,0.10,1000.0
! <Shading Summary>, Number of Fixed Detached Shades, Number of Building Detached Shades, Number of Attached Shades
 Shading Summary,0,8,0
! <Zone Summary>, Number of Zones, Number of Zone Surfaces, Number of SubSurfaces
 Zone Summary,2,19,1
! <Zone Information>,Zone Name,North Axis {deg},Origin X-Coordinate {m},Origin Y-Coordinate {m},Origin Z-Coordinate {m},Centroid X-Coordinate {m},Centroid Y-Coordinate {m},Centroid Z-Coordinate {m},Type,Zone Multiplier,Zone List Multiplier,Minimum X {m},Maximum X {m},Minimum Y {m},Maximum Y {m},Minimum Z {m},Maximum Z {m},Ceiling Height {m},Volume {m3},Zone Inside Convection Algorithm {Simple-Detailed-CeilingDiffuser-TrombeWall},Zone Outside Convection Algorithm {Simple-Detailed-Tarp-MoWitt-DOE-2-BLAST}, Floor Area {m2},Exterior Gross Wall Area {m2},Exterior Net Wall Area {m2},Exterior Window Area {m2}, Number of Surfaces, Number of SubSurfaces, Number of Shading SubSurfaces,  Part of Total Building Area
 Zone Information, PERIM,0.0,0.00,0.00,0.00,959792.24,1946577.27,58.17,1,1,1,959789.09,959792.46,1946572.53,1946576.07,56.62,59.73,3.11,25.94,TARP,DOE-2,8.34,9.32,5.60,3.73,8,1,0,Yes
 Zone Information, CORE,0.0,0.00,0.00,0.00,959779.06,1946554.46,58.17,1,1,1,959787.46,959789.75,1946572.16,1946575.46,56.62,59.73,3.11,15.59,TARP,DOE-2,5.01,0.00,0.00,0.00,8,0,0,Yes
! <Zone Internal Gains/Equipment Information - Nominal>,Zone Name, Floor Area {m2},# Occupants,Area per Occupant {m2/person},Occupant per Area {person/m2},Interior Lighting {W/m2},Electric Load {W/m2},Gas Load {W/m2},Other Load {W/m2},Hot Water Eq {W/m2},Steam Equipment {W/m2},Sum Loads per Area {W/m2},Outdoor Controlled Baseboard Heat
 Zone Internal Gains, PERIM,8.34,0.2,40.000,2.500E-002,7.000,4.000,0.000,0.000,0.000,0.000,11.000,No
 Zone Internal Gains, CORE,5.01,0.1,40.000,2.500E-002,7.000,4.000,0.000,0.000,0.000,0.000,11.000,No
! <People Internal Gains - Nominal>,Name,Schedule Name,Zone Name,Zone Floor Area {m2},# Zone Occupants,Number of People {},People/Floor Area {person/m2},Floor Area per person {m2/person},Fraction Radiant,Fraction Convected,Sensible Fraction Calculation,Activity level,ASHRAE 55 Warnings,Carbon Dioxide Generation Rate,Nominal Minimum Number of People,Nominal Maximum Number of People
 People Internal Gains, PEOPLE PERIM,BOSTON_RES_Y_OCC,PERIM,8.34,0.2,0.2,2.500E-002,40.000,0.300,0.700,AutoCalculate,PERIMPEOPLEACTIVITY,No,3.8200E-008,6.E-002,0
 People Internal Gains, PEOPLE CORE,BOSTON_RES_Y_OCC,CORE,5.01,0.1,0.1,2.500E-002,40.000,0.300,0.700,AutoCalculate,COREPEOPLEACTIVITY,No,3.8200E-008,4.E-002,0
! <Lights Internal Gains - Nominal>,Name,Schedule Name,Zone Name,Zone Floor Area {m2},# Zone Occupants,Lighting Level {W},Lights/Floor Area {W/m2},Lights per person {W/person},Fraction Return Air,Fraction Radiant,Fraction Short Wave,Fraction Convected,Fraction Replaceable,End-Use Category,Nominal Minimum Lighting Level {W},Nominal Maximum Lighting Level {W}
 Lights Internal Gains, PERIM GENERAL LIGHTING,BOSTON_RES_Y_LGT,PERIM,8.34,0.2,58.409,7.000,280.000,0.000,0.420,0.180,0.400,1.000,General,0.000,46.727
 Lights Internal Gains, CORE GENERAL LIGHTING,BOSTON_RES_Y_LGT,CORE,5.01,0.1,35.103,7.000,280.000,0.000,0.420,0.180,0.400,1.000,General,0.000,28.083
! <ElectricEquipment Internal Gains - Nominal>,Name,Schedule Name,Zone Name,Zone Floor Area {m2},# Zone Occupants,Equipment Level {W},Equipment/Floor Area {W/m2},Equipment per person {W/person},Fraction Latent,Fraction Radiant,Fraction Lost,Fraction Convected,End-Use SubCategory,Nominal Minimum Equipment Level {W},Nominal Maximum Equipment Level {W}
 ElectricEquipment Internal Gains, PERIM EQUIPMENT 1,BOSTON_RES_Y_PLG,PERIM,8.34,0.2,33.377,4.000,160.000,0.000,0.200,0.000,0.800,General,6.675,33.377
 ElectricEquipment Internal Gains, CORE EQUIPMENT 1,BOSTON_RES_Y_PLG,CORE,5.01,0.1,20.059,4.000,160.000,0.000,0.200,0.000,0.800,General,4.012,20.059
! <Construction CTF>,Construction Name,Index,#Layers,#CTFs,Time Step {hours},ThermalConductance {w/m2-K},OuterThermalAbsorptance,InnerThermalAbsorptance,OuterSolarAbsorptance,InnerSolarAbsorptance,Roughness
! <Material CTF Summary>,Material Name,Thickness {m},Conductivity {w/m-K},Density {kg/m3},Specific Heat {J/kg-K},ThermalResistance {m2-K/w}
! <Material:Air>,Material Name,ThermalResistance {m2-K/w}
! <CTF>,Time,Outside,Cross,Inside,Flux (except final one)
 Construction CTF,BOSTON_RES_THM_0,   1,   3,   5,   0.250,      4.015    ,   0.900,   0.900,   0.700,   0.700,Rough
 Material CTF Summary,BOSTON_GYPSUM_PLASTER_0.02_BOSTON_RES_THM_0,  0.0200,         0.420,    900.000,      840.000,  0.4762E-01
 Material CTF Summary,BOSTON_SOFTWOOD_GENERAL_0.02_BOSTON_RES_THM_0,  0.0200,         0.130,    496.000,     1630.000,  0.1538    
 Material CTF Summary,BOSTON_GYPSUM_PLASTER_0.02_BOSTON_RES_THM_0,  0.0200,         0.420,    900.000,      840.000,  0.4762E-01
 CTF,   5,     -0.20529628E-09,      0.24652312E-10,     -0.20529628E-09,     -0.11387516E-15
 CTF,   4,      0.70706438E-04,      0.93445071E-05,      0.70706438E-04,     -0.90687078E-10
 CTF,   3,     -0.66702542E-01,      0.15262251E-01,     -0.66702542E-01,      0.24122593E-04
 CTF,   2,       3.4791437    ,      0.64821576    ,       3.4791437    ,     -0.13906443E-01
 CTF,   1,      -20.467596    ,       1.7115110    ,      -20.467596    ,      0.36373190    
 CTF,   0,       19.665247    ,      0.23516434    ,       19.665247    
 Construction CTF,BOSTON_RES_THM_0_FLIPPED,   2,   3,   5,   0.250,      4.015    ,   0.900,   0.900,   0.700,   0.700,Rough
 Material CTF Summary,BOSTON_GYPSUM_PLASTER_0.02_BOSTON_RES_THM_0,  0.0200,         0.420,    900.000,      840.000,  0.4762E-01
 Material CTF Summary,BOSTON_SOFTWOOD_GENERAL_0.02_BOSTON_RES_THM_0,  0.0200,         0.130,    496.000,     1630.000,  0.1538    
 Material CTF Summary,BOSTON_GYPSUM_PLASTER_0.02_BOSTON_RES_THM_0,  0.0200,         0.420,    900.000,      840.000,  0.4762E-01
 CTF,   5,     -0.20529628E-09,      0.24652312E-10,     -0.20529628E-09,     -0.11387516E-15
 CTF,   4,      0.70706438E-04,      0.93445071E-05,      0.70706438E-04,     -0.90687078E-10
 CTF,   3,     -0.66702542E-01,      0.15262251E-01,     -0.66702542E-01,      0.24122593E-04
 CTF,   2,       3.4791437    ,      0.64821576    ,       3.4791437    ,     -0.13906443E-01
 CTF,   1,      -20.467596    ,       1.7115110    ,      -20.467596    ,      0.36373190    
 CTF,   0,       19.665247    ,      0.23516434    ,       19.665247    
 Construction CTF,BOSTON_RES_FAC_0_MS,   3,   5,  10,   0.250,     0.4846    ,   0.900,   0.900,   0.500,   0.600,Rough
 Material CTF Summary,BOSTON_CLAY_BRICK_H_0.06_BOSTON_RES_FAC_0_MS,  0.0600,         0.410,   1000.000,      920.000,  0.1463    
 Material CTF Summary,BOSTON_XPS_BOARD_0.02_BOSTON_RES_FAC_0_MS,  0.0200,         0.037,     40.000,     1200.000,  0.5405    
 Material CTF Summary,BOSTON_CONCRETE_BLOCK_H_0.15_BOSTON_RES_FAC_0_MS,  0.1500,         1.250,    880.000,      840.000,  0.1200    
 Material CTF Summary,BOSTON_FIBERGLASS_BATTS_0.05_BOSTON_RES_FAC_0_MS,  0.0500,         0.043,     12.000,      840.000,   1.163    
 Material CTF Summary,BOSTON_GYPSUM_BOARD_0.015_BOSTON_RES_FAC_0_MS,  0.0150,         0.160,    950.000,      840.000,  0.9375E-01
 CTF,  10,      0.86442339E-11,      0.74646166E-15,      0.50243978E-10,     -0.60301440E-14
 CTF,   9,     -0.17254573E-07,      0.11365257E-10,     -0.61913423E-07,      0.24696417E-10
 CTF,   8,      0.11704702E-04,      0.44774998E-08,      0.18130992E-04,     -0.29806969E-07
 CTF,   7,     -0.17945650E-02,      0.46341292E-06,     -0.19735327E-02,      0.79412388E-05
 CTF,   6,      0.81507201E-01,      0.13639531E-04,      0.82510523E-01,     -0.70619054E-03
 CTF,   5,      -1.4009244    ,      0.12174850E-03,      -1.3688591    ,      0.17902574E-01
 CTF,   4,       10.812457    ,      0.33613739E-03,       10.000336    ,     -0.19454362    
 CTF,   3,      -39.970721    ,      0.27028060E-03,      -32.814228    ,       1.0002227    
 CTF,   2,       73.128321    ,      0.51081496E-04,       52.468404    ,      -2.3841155    
 CTF,   1,      -63.291279    ,      0.11889021E-05,      -40.228654    ,       2.5595927    
 CTF,   0,       20.643216    ,      0.24451652E-09,       11.863241    
 Construction CTF,BOSTON_RES_FAC_0_MS_FLIPPED,   4,   5,  10,   0.250,     0.4846    ,   0.900,   0.900,   0.600,   0.500,Rough
 Material CTF Summary,BOSTON_GYPSUM_BOARD_0.015_BOSTON_RES_FAC_0_MS,  0.0150,         0.160,    950.000,      840.000,  0.9375E-01
 Material CTF Summary,BOSTON_FIBERGLASS_BATTS_0.05_BOSTON_RES_FAC_0_MS,  0.0500,         0.043,     12.000,      840.000,   1.163    
 Material CTF Summary,BOSTON_CONCRETE_BLOCK_H_0.15_BOSTON_RES_FAC_0_MS,  0.1500,         1.250,    880.000,      840.000,  0.1200    
 Material CTF Summary,BOSTON_XPS_BOARD_0.02_BOSTON_RES_FAC_0_MS,  0.0200,         0.037,     40.000,     1200.000,  0.5405    
 Material CTF Summary,BOSTON_CLAY_BRICK_H_0.06_BOSTON_RES_FAC_0_MS,  0.0600,         0.410,   1000.000,      920.000,  0.1463    
 CTF,  10,      0.50243978E-10,      0.74646166E-15,      0.86442339E-11,     -0.60301440E-14
 CTF,   9,     -0.61913423E-07,      0.11365257E-10,     -0.17254573E-07,      0.24696417E-10
 CTF,   8,      0.18130992E-04,      0.44774998E-08,      0.11704702E-04,     -0.29806969E-07
 CTF,   7,     -0.19735327E-02,      0.46341292E-06,     -0.17945650E-02,      0.79412388E-05
 CTF,   6,      0.82510523E-01,      0.13639531E-04,      0.81507201E-01,     -0.70619054E-03
 CTF,   5,      -1.3688591    ,      0.12174850E-03,      -1.4009244    ,      0.17902574E-01
 CTF,   4,       10.000336    ,      0.33613739E-03,       10.812457    ,     -0.19454362    
 CTF,   3,      -32.814228    ,      0.27028060E-03,      -39.970721    ,       1.0002227    
 CTF,   2,       52.468404    ,      0.51081496E-04,       73.128321    ,      -2.3841155    
 CTF,   1,      -40.228654    ,      0.11889021E-05,      -63.291279    ,       2.5595927    
 CTF,   0,       11.863241    ,      0.24451652E-09,       20.643216    
 Construction CTF,BOSTON_RES_PAR_0,   5,   3,   5,   0.250,      4.015    ,   0.900,   0.900,   0.700,   0.700,Rough
 Material CTF Summary,BOSTON_GYPSUM_PLASTER_0.02_BOSTON_RES_PAR_0,  0.0200,         0.420,    900.000,      840.000,  0.4762E-01
 Material CTF Summary,BOSTON_SOFTWOOD_GENERAL_0.02_BOSTON_RES_PAR_0,  0.0200,         0.130,    496.000,     1630.000,  0.1538    
 Material CTF Summary,BOSTON_GYPSUM_PLASTER_0.02_BOSTON_RES_PAR_0,  0.0200,         0.420,    900.000,      840.000,  0.4762E-01
 CTF,   5,     -0.20529628E-09,      0.24652312E-10,     -0.20529628E-09,     -0.11387516E-15
 CTF,   4,      0.70706438E-04,      0.93445071E-05,      0.70706438E-04,     -0.90687078E-10
 CTF,   3,     -0.66702542E-01,      0.15262251E-01,     -0.66702542E-01,      0.24122593E-04
 CTF,   2,       3.4791437    ,      0.64821576    ,       3.4791437    ,     -0.13906443E-01
 CTF,   1,      -20.467596    ,       1.7115110    ,      -20.467596    ,      0.36373190    
 CTF,   0,       19.665247    ,      0.23516434    ,       19.665247    
 Construction CTF,BOSTON_RES_PAR_0_FLIPPED,   6,   3,   5,   0.250,      4.015    ,   0.900,   0.900,   0.700,   0.700,Rough
 Material CTF Summary,BOSTON_GYPSUM_PLASTER_0.02_BOSTON_RES_PAR_0,  0.0200,         0.420,    900.000,      840.000,  0.4762E-01
 Material CTF Summary,BOSTON_SOFTWOOD_GENERAL_0.02_BOSTON_RES_PAR_0,  0.0200,         0.130,    496.000,     1630.000,  0.1538    
 Material CTF Summary,BOSTON_GYPSUM_PLASTER_0.02_BOSTON_RES_PAR_0,  0.0200,         0.420,    900.000,      840.000,  0.4762E-01
 CTF,   5,     -0.20529628E-09,      0.24652312E-10,     -0.20529628E-09,     -0.11387516E-15
 CTF,   4,      0.70706438E-04,      0.93445071E-05,      0.70706438E-04,     -0.90687078E-10
 CTF,   3,     -0.66702542E-01,      0.15262251E-01,     -0.66702542E-01,      0.24122593E-04
 CTF,   2,       3.4791437    ,      0.64821576    ,       3.4791437    ,     -0.13906443E-01
 CTF,   1,      -20.467596    ,       1.7115110    ,      -20.467596    ,      0.36373190    
 CTF,   0,       19.665247    ,      0.23516434    ,       19.665247    
 Construction CTF,BOSTON_RES_INF_0,   7,   5,   7,   0.250,      1.070    ,   0.850,   0.900,   0.600,   0.600,Rough
 Material CTF Summary,BOSTON_WOOD_FLOOR_0.02_BOSTON_RES_INF_0,  0.0200,         0.140,    650.000,     1200.000,  0.1429    
 Material CTF Summary,BOSTON_XPS_BOARD_0.01_BOSTON_RES_INF_0,  0.0100,         0.037,     40.000,     1200.000,  0.2703    
 Material CTF Summary,BOSTON_PLYWOOD_BOARD_0.02_BOSTON_RES_INF_0,  0.0200,         0.110,    540.000,     1880.000,  0.1818    
 Material CTF Summary,BOSTON_AIR_FLOOR_15CM_0.15_BOSTON_RES_INF_0,  0.1500,         0.700,      1.200,     1000.000,  0.2143    
 Material CTF Summary,BOSTON_GYPSUM_BOARD_0.02_BOSTON_RES_INF_0,  0.0200,         0.160,    950.000,      840.000,  0.1250    
 CTF,   7,     -0.18773660E-09,      0.79892906E-11,     -0.29278232E-09,      0.97516859E-14
 CTF,   6,      0.19846175E-05,      0.73155077E-07,      0.30968272E-05,     -0.23129397E-09
 CTF,   5,     -0.61770617E-02,      0.56511881E-04,     -0.62876745E-02,      0.15027884E-05
 CTF,   4,      0.26830563    ,      0.37982743E-02,      0.29313309    ,     -0.25256993E-02
 CTF,   3,      -3.5029623    ,      0.34640860E-01,      -3.9769073    ,      0.75613526E-01
 CTF,   2,       15.520001    ,      0.53463629E-01,       17.091360    ,     -0.54581003    
 CTF,   1,      -24.042767    ,      0.11444201E-01,      -26.089908    ,       1.3760510    
 CTF,   0,       11.867073    ,      0.71524191E-04,       12.792082    
 Construction CTF,BOSTON_RES_INF_0_FLIPPED,   8,   5,   7,   0.250,      1.070    ,   0.900,   0.850,   0.600,   0.600,Rough
 Material CTF Summary,BOSTON_GYPSUM_BOARD_0.02_BOSTON_RES_INF_0,  0.0200,         0.160,    950.000,      840.000,  0.1250    
 Material CTF Summary,BOSTON_AIR_FLOOR_15CM_0.15_BOSTON_RES_INF_0,  0.1500,         0.700,      1.200,     1000.000,  0.2143    
 Material CTF Summary,BOSTON_PLYWOOD_BOARD_0.02_BOSTON_RES_INF_0,  0.0200,         0.110,    540.000,     1880.000,  0.1818    
 Material CTF Summary,BOSTON_XPS_BOARD_0.01_BOSTON_RES_INF_0,  0.0100,         0.037,     40.000,     1200.000,  0.2703    
 Material CTF Summary,BOSTON_WOOD_FLOOR_0.02_BOSTON_RES_INF_0,  0.0200,         0.140,    650.000,     1200.000,  0.1429    
 CTF,   7,     -0.29278232E-09,      0.79892906E-11,     -0.18773660E-09,      0.97516859E-14
 CTF,   6,      0.30968272E-05,      0.73155077E-07,      0.19846175E-05,     -0.23129397E-09
 CTF,   5,     -0.62876745E-02,      0.56511881E-04,     -0.61770617E-02,      0.15027884E-05
 CTF,   4,      0.29313309    ,      0.37982743E-02,      0.26830563    ,     -0.25256993E-02
 CTF,   3,      -3.9769073    ,      0.34640860E-01,      -3.5029623    ,      0.75613526E-01
 CTF,   2,       17.091360    ,      0.53463629E-01,       15.520001    ,     -0.54581003    
 CTF,   1,      -26.089908    ,      0.11444201E-01,      -24.042767    ,       1.3760510    
 CTF,   0,       12.792082    ,      0.71524191E-04,       11.867073    
 Construction CTF,BOSTON_RES_GRO_0,   9,   5,  11,   0.250,      1.403    ,   0.600,   0.900,   0.600,   0.400,Rough
 Material CTF Summary,BOSTON_XPS_BOARD_0.02_BOSTON_RES_GRO_0,  0.0200,         0.037,     40.000,     1200.000,  0.5405    
 Material CTF Summary,BOSTON_CONCRETE_RC_DENSE_0.15_BOSTON_RES_GRO_0,  0.1500,         1.750,   2400.000,      840.000,  0.8571E-01
 Material CTF Summary,BOSTON_CONCRETE_MC_LIGHT_0.04_BOSTON_RES_GRO_0,  0.0400,         1.650,   2100.000,     1040.000,  0.2424E-01
 Material CTF Summary,BOSTON_CEMENT_MORTAR_0.03_BOSTON_RES_GRO_0,  0.0300,         0.800,   1900.000,      840.000,  0.3750E-01
 Material CTF Summary,BOSTON_CERAMIC_TILE_0.02_BOSTON_RES_GRO_0,  0.0200,         0.800,   2243.000,      840.000,  0.2500E-01
 CTF,  11,     -0.63167511E-12,      0.52232206E-15,     -0.13162056E-10,      0.10044009E-15
 CTF,  10,      0.62858235E-09,      0.39317799E-13,      0.17762128E-07,     -0.19258342E-11
 CTF,   9,     -0.15496295E-06,      0.70005769E-10,     -0.49148393E-05,      0.18918340E-08
 CTF,   8,      0.15445750E-04,      0.24138410E-07,      0.53766105E-03,     -0.45441019E-06
 CTF,   7,     -0.70913099E-03,      0.20731765E-05,     -0.26817645E-01,      0.43258312E-04
 CTF,   6,      0.15829070E-01,      0.52161474E-04,      0.63135749    ,     -0.18262064E-02
 CTF,   5,     -0.18184690    ,      0.41550956E-03,      -7.2273712    ,      0.34887023E-01
 CTF,   4,       1.1291965    ,      0.10627795E-02,       41.589566    ,     -0.30853659    
 CTF,   3,      -3.8395728    ,      0.81775314E-03,      -124.04212    ,       1.3194445    
 CTF,   2,       6.9743457    ,      0.15296823E-03,       193.73696    ,      -2.7690660    
 CTF,   1,      -6.2539121    ,      0.37235412E-05,      -149.97448    ,       2.7232670    
 CTF,   0,       2.1591614    ,     -0.27584822E-09,       45.314883    
 Construction CTF,BOSTON_RES_GRO_0_FLIPPED,  10,   5,  11,   0.250,      1.403    ,   0.900,   0.600,   0.400,   0.600,Rough
 Material CTF Summary,BOSTON_CERAMIC_TILE_0.02_BOSTON_RES_GRO_0,  0.0200,         0.800,   2243.000,      840.000,  0.2500E-01
 Material CTF Summary,BOSTON_CEMENT_MORTAR_0.03_BOSTON_RES_GRO_0,  0.0300,         0.800,   1900.000,      840.000,  0.3750E-01
 Material CTF Summary,BOSTON_CONCRETE_MC_LIGHT_0.04_BOSTON_RES_GRO_0,  0.0400,         1.650,   2100.000,     1040.000,  0.2424E-01
 Material CTF Summary,BOSTON_CONCRETE_RC_DENSE_0.15_BOSTON_RES_GRO_0,  0.1500,         1.750,   2400.000,      840.000,  0.8571E-01
 Material CTF Summary,BOSTON_XPS_BOARD_0.02_BOSTON_RES_GRO_0,  0.0200,         0.037,     40.000,     1200.000,  0.5405    
 CTF,  11,     -0.13162056E-10,      0.52232206E-15,     -0.63167511E-12,      0.10044009E-15
 CTF,  10,      0.17762128E-07,      0.39317799E-13,      0.62858235E-09,     -0.19258342E-11
 CTF,   9,     -0.49148393E-05,      0.70005769E-10,     -0.15496295E-06,      0.18918340E-08
 CTF,   8,      0.53766105E-03,      0.24138410E-07,      0.15445750E-04,     -0.45441019E-06
 CTF,   7,     -0.26817645E-01,      0.20731765E-05,     -0.70913099E-03,      0.43258312E-04
 CTF,   6,      0.63135749    ,      0.52161474E-04,      0.15829070E-01,     -0.18262064E-02
 CTF,   5,      -7.2273712    ,      0.41550956E-03,     -0.18184690    ,      0.34887023E-01
 CTF,   4,       41.589566    ,      0.10627795E-02,       1.1291965    ,     -0.30853659    
 CTF,   3,      -124.04212    ,      0.81775314E-03,      -3.8395728    ,       1.3194445    
 CTF,   2,       193.73696    ,      0.15296823E-03,       6.9743457    ,      -2.7690660    
 CTF,   1,      -149.97448    ,      0.37235412E-05,      -6.2539121    ,       2.7232670    
 CTF,   0,       45.314883    ,     -0.27584822E-09,       2.1591614    
 Construction CTF,BOSTON_RES_ROF_0,  11,   5,  10,   0.250,     0.3029    ,   0.900,   0.900,   0.700,   0.600,Rough
 Material CTF Summary,BOSTON_CONCRETE_MC_LIGHT_0.1_BOSTON_RES_ROF_0,  0.1000,         1.650,   2100.000,     1040.000,  0.6061E-01
 Material CTF Summary,BOSTON_PLYWOOD_BOARD_0.02_BOSTON_RES_ROF_0,  0.0200,         0.110,    540.000,     1880.000,  0.1818    
 Material CTF Summary,BOSTON_FIBERGLASS_BATTS_0.12_BOSTON_RES_ROF_0,  0.1200,         0.043,     12.000,      840.000,   2.791    
 Material CTF Summary,BOSTON_AIR_FLOOR_15CM_0.1_BOSTON_RES_ROF_0,  0.1000,         0.700,      1.200,     1000.000,  0.1429    
 Material CTF Summary,BOSTON_GYPSUM_BOARD_0.02_BOSTON_RES_ROF_0,  0.0200,         0.160,    950.000,      840.000,  0.1250    
 CTF,  10,      0.69887245E-12,      0.14744882E-13,      0.65618179E-11,     -0.11835777E-14
 CTF,   9,     -0.23476253E-08,      0.27846165E-10,     -0.13090575E-07,      0.32672170E-11
 CTF,   8,      0.29045331E-05,      0.15308836E-07,      0.59855829E-05,     -0.52878518E-08
 CTF,   7,     -0.85835659E-03,      0.21203136E-05,     -0.77132497E-03,      0.22373481E-05
 CTF,   6,      0.70700567E-01,      0.79911262E-04,      0.31800979E-01,     -0.26330036E-03
 CTF,   5,      -1.6542609    ,      0.87974829E-03,     -0.56910222    ,      0.86435939E-02
 CTF,   4,       16.011443    ,      0.29179180E-02,       4.8264306    ,     -0.11112673    
 CTF,   3,      -70.882628    ,      0.27755934E-02,      -19.826854    ,      0.63361679    
 CTF,   2,       153.29097    ,      0.61708588E-03,       39.527025    ,      -1.7244283    
 CTF,   1,      -156.42734    ,      0.17033532E-04,      -36.710481    ,       2.1694934    
 CTF,   0,       59.599254    ,      0.29927907E-08,       12.729236    
 Construction CTF,BOSTON_RES_ROF_0_FLIPPED,  12,   5,  10,   0.250,     0.3029    ,   0.900,   0.900,   0.600,   0.700,Rough
 Material CTF Summary,BOSTON_GYPSUM_BOARD_0.02_BOSTON_RES_ROF_0,  0.0200,         0.160,    950.000,      840.000,  0.1250    
 Material CTF Summary,BOSTON_AIR_FLOOR_15CM_0.1_BOSTON_RES_ROF_0,  0.1000,         0.700,      1.200,     1000.000,  0.1429    
 Material CTF Summary,BOSTON_FIBERGLASS_BATTS_0.12_BOSTON_RES_ROF_0,  0.1200,         0.043,     12.000,      840.000,   2.791    
 Material CTF Summary,BOSTON_PLYWOOD_BOARD_0.02_BOSTON_RES_ROF_0,  0.0200,         0.110,    540.000,     1880.000,  0.1818    
 Material CTF Summary,BOSTON_CONCRETE_MC_LIGHT_0.1_BOSTON_RES_ROF_0,  0.1000,         1.650,   2100.000,     1040.000,  0.6061E-01
 CTF,  10,      0.65618179E-11,      0.14744882E-13,      0.69887245E-12,     -0.11835777E-14
 CTF,   9,     -0.13090575E-07,      0.27846165E-10,     -0.23476253E-08,      0.32672170E-11
 CTF,   8,      0.59855829E-05,      0.15308836E-07,      0.29045331E-05,     -0.52878518E-08
 CTF,   7,     -0.77132497E-03,      0.21203136E-05,     -0.85835659E-03,      0.22373481E-05
 CTF,   6,      0.31800979E-01,      0.79911262E-04,      0.70700567E-01,     -0.26330036E-03
 CTF,   5,     -0.56910222    ,      0.87974829E-03,      -1.6542609    ,      0.86435939E-02
 CTF,   4,       4.8264306    ,      0.29179180E-02,       16.011443    ,     -0.11112673    
 CTF,   3,      -19.826854    ,      0.27755934E-02,      -70.882628    ,      0.63361679    
 CTF,   2,       39.527025    ,      0.61708588E-03,       153.29097    ,      -1.7244283    
 CTF,   1,      -36.710481    ,      0.17033532E-04,      -156.42734    ,       2.1694934    
 CTF,   0,       12.729236    ,      0.29927907E-08,       59.599254    
! <WindowConstruction>,Construction Name,Index,#Layers,Roughness,Conductance {W/m2-K},SHGC,Solar Transmittance at Normal Incidence,Visible Transmittance at Normal Incidence
! <WindowMaterial:Glazing>, Material Name, Optical Data Type, Spectral Data Set Name, Thickness {m}, Solar Transmittance,Front Solar Reflectance, Back Solar Reflectance, Visible Transmittance, Front Visible Reflectance,Back Visible Reflectance,Infrared Transmittance, Front Thermal Emissivity, Back Thermal Emissivity,Conductivity {W/m-K},Dirt Factor,Solar Diffusing
! <WindowMaterial:Gas>,Material Name,GasType,Thickness {m}
 WindowConstruction,BOSTON_DBL_AIR_CL,13,3,VerySmooth,3.159,0.757,0.692,0.797
 WindowMaterial:Glazing,BOSTON_GLASS_CLEAR_3_0.003_BOSTON_DBL_AIR_CL,SpectralAverage,,3.00000E-003,0.83000,7.00000E-002,7.00000E-002,0.89000,8.00000E-002,8.00000E-002,0.00000,0.84000,0.84000,0.90000,1.00000,No
 WindowMaterial:Gas,AIR_0.006_BOSTON_DBL_AIR_CL,Air,6.000E-003
 WindowMaterial:Glazing,BOSTON_GLASS_CLEAR_3_0.003_BOSTON_DBL_AIR_CL,SpectralAverage,,3.00000E-003,0.83000,7.00000E-002,7.00000E-002,0.89000,8.00000E-002,8.00000E-002,0.00000,0.84000,0.84000,0.90000,1.00000,No
 WindowConstruction,BOSTON_DBL_AIR_CL_FLIPPED,14,3,VerySmooth,3.159,0.757,0.692,0.797
 WindowMaterial:Glazing,BOSTON_GLASS_CLEAR_3_0.003_BOSTON_DBL_AIR_CL,SpectralAverage,,3.00000E-003,0.83000,7.00000E-002,7.00000E-002,0.89000,8.00000E-002,8.00000E-002,0.00000,0.84000,0.84000,0.90000,1.00000,No
 WindowMaterial:Gas,AIR_0.006_BOSTON_DBL_AIR_CL,Air,6.000E-003
 WindowMaterial:Glazing,BOSTON_GLASS_CLEAR_3_0.003_BOSTON_DBL_AIR_CL,SpectralAverage,,3.00000E-003,0.83000,7.00000E-002,7.00000E-002,0.89000,8.00000E-002,8.00000E-002,0.00000,0.84000,0.84000,0.90000,1.00000,No
! <Shadowing/Sun Position Calculations> [Annual Simulations], Calculation Method, Value {days}, Allowable Number Figures in Shadow Overlap {}, Polygon Clipping Algorithm, Sky Diffuse Modeling Algorithm
Shadowing/Sun Position Calculations,AverageOverDaysInFrequency,20,15000,SutherlandHodgman,SimpleSkyDiffuseModeling
! <Surface View Factor Check Values>,Zone Name,Original Check Value,Calculated Fixed Check Value,Final Check Value,Number of Iterations,Fixed RowSum Convergence,Used RowSum Convergence
Surface View Factor Check Values,PERIM,0.161107,8.073079E-004,8.073079E-004,8,10.000000,8.073079E-004
Surface View Factor Check Values,CORE,0.130022,9.415154E-004,9.415154E-004,10,9.000000,9.415154E-004
! <Surface Convection Parameters>, Surface Name, Outside Model Assignment, Outside Area [m2], Outside Perimeter [m], Outside Height [m], Inside Model Assignment, Inside Height [cm], Inside Perimeter Envelope [m], Inside Hydraulic Diameter [m], Window Wall Ratio [ ], Window Location [ ], Near Radiant [Yes/No], Has Active HVAC [Yes/No]
Surface Convection Parameters,PERIM:F0,0,9.32,4340792.19,59.73,0,3.11,3.00,2.41,0.40,4,No,No
Surface Convection Parameters,PERIM:F0:W0,0,9.32,4340792.19,59.73,0,3.11,3.00,2.41,0.40,1,No,No
Surface Convection Parameters,PERIM:F1,0,0.00,0.00,0.00,0,3.11,3.00,2.41,0.40,0,No,No
Surface Convection Parameters,PERIM:F2,0,0.00,0.00,0.00,0,3.11,3.00,2.41,0.40,0,No,No
Surface Convection Parameters,PERIM:F3,0,0.00,0.00,0.00,0,3.11,3.00,2.41,0.40,0,No,No
Surface Convection Parameters,PERIM:F4,0,0.00,0.00,0.00,0,3.11,3.00,2.41,0.40,0,No,No
Surface Convection Parameters,PERIM:F5,0,0.00,0.00,0.00,0,3.11,3.00,2.41,0.40,0,No,No
Surface Convection Parameters,PERIM:F6,0,0.00,0.00,0.00,0,3.11,3.00,2.41,0.40,0,No,No
Surface Convection Parameters,PERIM:F7,0,1.02,7.88,0.00,0,3.11,3.00,2.41,0.40,0,No,No
Surface Convection Parameters,PERIMINTERNALMASS,0,0.00,0.00,0.00,0,3.11,3.00,2.41,0.40,0,No,No
Surface Convection Parameters,CORE:F0,0,0.00,0.00,0.00,0,3.11,0.00,1.80,-999.00,0,No,No
Surface Convection Parameters,CORE:F1,0,0.00,0.00,0.00,0,3.11,0.00,1.80,-999.00,0,No,No
Surface Convection Parameters,CORE:F2,0,0.00,0.00,0.00,0,3.11,0.00,1.80,-999.00,0,No,No
Surface Convection Parameters,CORE:F3,0,0.00,0.00,0.00,0,3.11,0.00,1.80,-999.00,0,No,No
Surface Convection Parameters,CORE:F4,0,0.00,0.00,0.00,0,3.11,0.00,1.80,-999.00,0,No,No
Surface Convection Parameters,CORE:F5,0,0.00,0.00,0.00,0,3.11,0.00,1.80,-999.00,0,No,No
Surface Convection Parameters,CORE:F6,0,0.00,0.00,0.00,0,3.11,0.00,1.80,-999.00,0,No,No
Surface Convection Parameters,CORE:F7,0,1.02,7.88,0.00,0,3.11,0.00,1.80,-999.00,0,No,No
Surface Convection Parameters,COREINTERNALMASS,0,0.00,0.00,0.00,0,3.11,0.00,1.80,-999.00,0,No,No
! <Building Convection Parameters:North Facade>, Perimeter, Height, Xmin, Xmax, Ymin, Ymax, Zmin, Zmax 
Building Convection Parameters:North Facade, 0.00,0.00,0.00,0.00,0.00,0.00,0.00,0.00
! <Building Convection Parameters:Northeast Facade>, Perimeter, Height, Xmin, Xmax, Ymin, Ymax, Zmin, Zmax 
Building Convection Parameters:Northeast Facade, 0.00,0.00,0.00,0.00,0.00,0.00,0.00,0.00
! <Building Convection Parameters:East Facade>, Perimeter, Height, Xmin, Xmax, Ymin, Ymax, Zmin, Zmax 
Building Convection Parameters:East Facade, 4340792.19,59.73,0.00,959792.46,0.00,1946576.07,0.00,59.73
! <Building Convection Parameters:Southeast Facade>, Perimeter, Height, Xmin, Xmax, Ymin, Ymax, Zmin, Zmax 
Building Convection Parameters:Southeast Facade, 0.00,0.00,0.00,0.00,0.00,0.00,0.00,0.00
! <Building Convection Parameters:South Facade>, Perimeter, Height, Xmin, Xmax, Ymin, Ymax, Zmin, Zmax 
Building Convection Parameters:South Facade, 0.00,0.00,0.00,0.00,0.00,0.00,0.00,0.00
! <Building Convection Parameters:Southwest Facade>, Perimeter, Height, Xmin, Xmax, Ymin, Ymax, Zmin, Zmax 
Building Convection Parameters:Southwest Facade, 0.00,0.00,0.00,0.00,0.00,0.00,0.00,0.00
! <Building Convection Parameters:West Facade>, Perimeter, Height, Xmin, Xmax, Ymin, Ymax, Zmin, Zmax 
Building Convection Parameters:West Facade, 0.00,0.00,0.00,0.00,0.00,0.00,0.00,0.00
! <Building Convection Parameters:Northwest Facade>, Perimeter, Height, Xmin, Xmax, Ymin, Ymax, Zmin, Zmax 
Building Convection Parameters:NorthwWest Facade, 0.00,0.00,0.00,0.00,0.00,0.00,0.00,0.00
! <Building Convection Parameters:Roof>, Area [m2], Perimeter [m], Height [m], XdYdZd:X, XdYdZd:Y, XdYdZd:Z,XdYdZu:X, XdYdZu:Y, XdYdZu:Z,XdYuZd:X, XdYuZd:Y, XdYuZd:Z,XdYuZu:X, XdYuZu:Y, XdYuZu:Z,XuYdZd:X, XuYdZd:Y, XuYdZd:Z,XuYuZd:X, XuYuZd:Y, XuYuZd:Z,XuYdZu:X, XuYdZu:Y, XuYdZu:Z,XuYuZu:X, XuYuZu:Y, XuYuZu:Z
Building Convection Parameters:Roof,1.02,7.88,0.00,959788.120,1946572.161,59.726,959788.120,1946572.161,59.726,959789.298,1946575.502,59.726,959789.298,1946575.502,59.726,959789.958,1946572.575,59.726,959789.958,1946572.575,59.726,959789.958,1946572.575,59.726,959789.958,1946572.575,59.726
! <Infiltration Airflow Stats - Nominal>,Name,Schedule Name,Zone Name, Zone Floor Area {m2}, # Zone Occupants,Design Volume Flow Rate {m3/s},Volume Flow Rate/Floor Area {m3/s/m2},Volume Flow Rate/Exterior Surface Area {m3/s/m2},ACH - Air Changes per Hour,Equation A - Constant Term Coefficient {},Equation B - Temperature Term Coefficient {1/C},Equation C - Velocity Term Coefficient {s/m}, Equation D - Velocity Squared Term Coefficient {s2/m2}
 ZoneInfiltration Airflow Stats, PERIMINFILTRATION,ON,PERIM,8.34,0.2,2.522E-003,3.022E-004,2.532E-004,0.350,1.000,0.000,0.000,0.000
 ZoneInfiltration Airflow Stats, COREINFILTRATION,ON,CORE,5.01,0.1,1.515E-003,3.022E-004,3.968E-003,0.350,1.000,0.000,0.000,0.000
! <AirFlow Model>, Simple
 AirFlow Model, Simple
! <RoomAir Model>, Zone Name, Mixing/Mundt/UCSDDV/UCSDCV/UCSDUFI/UCSDUFE/User Defined
RoomAir Model,PERIM,Mixing/Well-Stirred
RoomAir Model,CORE,Mixing/Well-Stirred
! <AirflowNetwork Model:Control>, No Multizone or Distribution/Multizone with Distribution/Multizone without Distribution/Multizone with Distribution only during Fan Operation
AirflowNetwork Model:Control,NoMultizoneOrDistribution
! <Zone Volume Capacitance Multiplier>, Sensible Heat Capacity Multiplier, Moisture Capacity Multiplier, Carbon Dioxide Capacity Multiplier, Generic Contaminant Capacity Multiplier
Zone Volume Capacitance Multiplier,   1.000 ,   1.000,   1.000,   1.000
! <Component Sizing Information>, Component Type, Component Name, Input Field Description, Value
 Component Sizing Information, ZoneHVAC:IdealLoadsAirSystem, PERIM IDEAL LOADS AIR, User-Specified Maximum Heating Air Flow Rate [m3/s], 100.00000
 Component Sizing Information, ZoneHVAC:IdealLoadsAirSystem, PERIM IDEAL LOADS AIR, User-Specified Maximum Cooling Air Flow Rate [m3/s], 100.00000
 Component Sizing Information, ZoneHVAC:IdealLoadsAirSystem, CORE IDEAL LOADS AIR, User-Specified Maximum Heating Air Flow Rate [m3/s], 100.00000
 Component Sizing Information, ZoneHVAC:IdealLoadsAirSystem, CORE IDEAL LOADS AIR, User-Specified Maximum Cooling Air Flow Rate [m3/s], 100.00000
! <Zone/Shading Surfaces>,<Zone Name>/#Shading Surfaces,# Surfaces
! <HeatTransfer/Shading/Frame/Divider_Surface>,Surface Name,Surface Class,Base Surface,Heat Transfer Algorithm,Construction/Transmittance Schedule,Nominal U (w/o film coefs)/Min Schedule Value,Nominal U (with film coefs)/Max Schedule Value,Solar Diffusing,Area (Net),Area (Gross),Area (Sunlit Calc),Azimuth,Tilt,~Width,~Height,Reveal,<ExtBoundCondition>,<ExtConvCoeffCalc>,<IntConvCoeffCalc>,<SunExposure>,<WindExposure>,ViewFactorToGround,ViewFactorToSky,ViewFactorToGround-IR,ViewFactorToSky-IR,#Sides
! <Units>,,,,,,{W/m2-K}/{},{W/m2-K}/{},{},{m2},{m2},{m2},{deg},{deg},{m},{m},{m},,,,,,,,,,
Shading_Surfaces,Number of Shading Surfaces,    8
Shading_Surface,SHADER_0,Detached Shading:Building,,None,,0.0,0.0, ,719.12,719.12,719.12,257.47,90.00,13.83,52.00,,,,,,,,,,,4
Shading_Surface,Mir-SHADER_0,Detached Shading:Building,,None,,0.0,0.0, ,719.12,719.12,719.12,77.47,90.00,13.83,52.00,,,,,,,,,,,4
Shading_Surface,SHADER_1,Detached Shading:Building,,None,,0.0,0.0, ,626.78,626.78,626.78,257.12,90.00,12.05,52.00,,,,,,,,,,,4
Shading_Surface,Mir-SHADER_1,Detached Shading:Building,,None,,0.0,0.0, ,626.78,626.78,626.78,77.12,90.00,12.05,52.00,,,,,,,,,,,4
Shading_Surface,SHADER_2,Detached Shading:Building,,None,,0.0,0.0, ,1152.72,1152.72,1152.72,257.30,90.00,22.17,52.00,,,,,,,,,,,4
Shading_Surface,Mir-SHADER_2,Detached Shading:Building,,None,,0.0,0.0, ,1152.72,1152.72,1152.72,77.30,90.00,22.17,52.00,,,,,,,,,,,4
Shading_Surface,SHADER_3,Detached Shading:Building,,None,,0.0,0.0, ,145.34,145.34,145.34,259.70,90.00,2.80,52.00,,,,,,,,,,,4
Shading_Surface,Mir-SHADER_3,Detached Shading:Building,,None,,0.0,0.0, ,145.34,145.34,145.34,79.70,90.00,2.80,52.00,,,,,,,,,,,4
Zone_Surfaces,PERIM,   10
HeatTransfer_Surface,PERIM:F0,Wall,,CTF - ConductionTransferFunction,,0.485,0.452,,5.60,9.32,5.60,77.31,90.00,3.00,3.11,0.00,ExternalEnvironment,DOE-2,ASHRAETARP,SunExposed,WindExposed,0.50,0.50,0.66,0.34,4
HeatTransfer_Surface,PERIM:F0:W0,Window,PERIM:F0,Window5 Detailed Fenestration,,N/A,3.159,No,3.73,3.73,3.73,77.31,90.00,2.80,1.33,0.00,ExternalEnvironment,DOE-2,ASHRAETARP,SunExposed,WindExposed,0.50,0.50,0.66,0.34,4
HeatTransfer_Surface,PERIM:F1,Wall,,CTF - ConductionTransferFunction,,4.015,2.508,,9.32,9.32,9.32,257.31,90.00,3.00,3.11,0.00,CORE:F0,Other/Same Surface Int Conv,ASHRAETARP,NoSun,NoWind,0.00,0.50,0.50,0.50,4
HeatTransfer_Surface,PERIM:F2,Wall,,CTF - ConductionTransferFunction,,4.015,2.508,,8.65,8.65,8.65,347.31,90.00,2.78,3.11,0.00,PERIM:F2,Other/Same Surface Int Conv,ASHRAETARP,NoSun,NoWind,0.00,0.50,0.50,0.50,4
HeatTransfer_Surface,PERIM:F3,Wall,,CTF - ConductionTransferFunction,,4.015,2.508,,8.65,8.65,8.65,167.31,90.00,2.78,3.11,0.00,PERIM:F3,Other/Same Surface Int Conv,ASHRAETARP,NoSun,NoWind,0.00,0.50,0.50,0.50,4
HeatTransfer_Surface,PERIM:F4,Floor,,CTF - ConductionTransferFunction,,1.070,0.849,,7.71,7.71,7.71,77.31,180.00,3.00,2.57,0.00,PERIM:F4,Other/Same Surface Int Conv,ASHRAETARP,NoSun,NoWind,0.00,0.00,1.00,0.00,4
HeatTransfer_Surface,PERIM:F5,Floor,,CTF - ConductionTransferFunction,,1.403,1.046,,0.64,0.64,0.64,77.31,180.00,3.00,0.21,0.00,Ground,N/A-Ground,ASHRAETARP,NoSun,NoWind,1.00,0.00,1.00,0.00,4
HeatTransfer_Surface,PERIM:F6,Roof,,CTF - ConductionTransferFunction,,1.070,0.891,,7.71,7.71,7.71,347.31,0.00,2.57,3.00,0.00,PERIM:F6,Other/Same Surface Int Conv,ASHRAETARP,NoSun,NoWind,0.00,1.00,0.00,1.00,4
HeatTransfer_Surface,PERIM:F7,Roof,,CTF - ConductionTransferFunction,,0.303,0.287,,0.64,0.64,0.64,347.29,0.00,0.21,3.00,0.00,ExternalEnvironment,DOE-2,ASHRAETARP,SunExposed,WindExposed,0.00,1.00,4.20E-002,0.96,4
HeatTransfer_Surface,PERIMINTERNALMASS,Internal Mass,,CTF - ConductionTransferFunction,,4.015,4.015,,7.51,7.51,7.51,0.00,90.00,7.51,1.00,0.00,PERIMINTERNALMASS,Other/Same Surface Int Conv,ASHRAETARP,NoSun,NoWind,0.00,0.50,1.00,0.00,0
Zone_Surfaces,CORE,    9
HeatTransfer_Surface,CORE:F0,Wall,,CTF - ConductionTransferFunction,,4.015,2.508,,9.32,9.32,9.32,77.31,90.00,3.00,3.11,0.00,PERIM:F1,Other/Same Surface Int Conv,ASHRAETARP,NoSun,NoWind,0.00,0.50,0.50,0.50,4
HeatTransfer_Surface,CORE:F1,Wall,,CTF - ConductionTransferFunction,,4.015,2.508,,9.32,9.32,9.32,257.31,90.00,3.00,3.11,0.00,CORE:F1,Other/Same Surface Int Conv,ASHRAETARP,NoSun,NoWind,0.00,0.50,0.50,0.50,4
HeatTransfer_Surface,CORE:F2,Wall,,CTF - ConductionTransferFunction,,4.015,2.508,,5.20,5.20,5.20,347.31,90.00,1.67,3.11,0.00,CORE:F2,Other/Same Surface Int Conv,ASHRAETARP,NoSun,NoWind,0.00,0.50,0.50,0.50,4
HeatTransfer_Surface,CORE:F3,Wall,,CTF - ConductionTransferFunction,,4.015,2.508,,5.20,5.20,5.20,167.31,90.00,1.67,3.11,0.00,CORE:F3,Other/Same Surface Int Conv,ASHRAETARP,NoSun,NoWind,0.00,0.50,0.50,0.50,4
HeatTransfer_Surface,CORE:F4,Floor,,CTF - ConductionTransferFunction,,1.070,0.849,,4.63,4.63,4.63,77.31,180.00,3.00,1.54,0.00,CORE:F4,Other/Same Surface Int Conv,ASHRAETARP,NoSun,NoWind,0.00,0.00,1.00,0.00,4
HeatTransfer_Surface,CORE:F5,Floor,,CTF - ConductionTransferFunction,,1.403,1.046,,0.38,0.38,0.38,77.31,180.00,3.00,0.13,0.00,Ground,N/A-Ground,ASHRAETARP,NoSun,NoWind,1.00,0.00,1.00,0.00,4
HeatTransfer_Surface,CORE:F6,Roof,,CTF - ConductionTransferFunction,,1.070,0.891,,4.63,4.63,4.63,347.31,0.00,1.54,3.00,0.00,CORE:F6,Other/Same Surface Int Conv,ASHRAETARP,NoSun,NoWind,0.00,1.00,0.00,1.00,4
HeatTransfer_Surface,CORE:F7,Roof,,CTF - ConductionTransferFunction,,0.303,0.287,,0.38,0.38,0.38,347.30,0.00,0.13,3.00,0.00,ExternalEnvironment,DOE-2,ASHRAETARP,SunExposed,WindExposed,0.00,1.00,2.83E-002,0.97,4
HeatTransfer_Surface,COREINTERNALMASS,Internal Mass,,CTF - ConductionTransferFunction,,4.015,4.015,,4.51,4.51,4.51,0.00,90.00,4.51,1.00,0.00,COREINTERNALMASS,Other/Same Surface Int Conv,ASHRAETARP,NoSun,NoWind,0.00,0.50,1.00,0.00,0
! <Environment>,Environment Name,Environment Type, Start Date, End Date, Start DayOfWeek, Duration {#days}, Source:Start DayOfWeek,  Use Daylight Saving, Use Holidays, Apply Weekend Holiday Rule,  Use Rain Values, Use Snow Values
! <Environment:Special Days>, Special Day Name, Special Day Type, Source, Start Date, Duration {#days}
! <Environment:Daylight Saving>, Daylight Saving Indicator, Source, Start Date, End Date
! <Environment:WarmupDays>, NumberofWarmupDays
Environment,ARCHSIM,WeatherFileRunPeriod,01/01,12/31,Sunday,365,UseWeatherFile,No,No,Yes,Yes,Yes
Environment:Daylight Saving,Yes,InputFile,03/26,10/29
Environment:WarmupDays,  6
! <Warmup Convergence Information>,Zone Name,Environment Type/Name,Average Warmup Temperature Difference {deltaC},Std Dev Warmup Temperature Difference {deltaC},Max Temperature Pass/Fail Convergence,Min Temperature Pass/Fail Convergence,Average Warmup Load Difference {W},Std Dev Warmup Load Difference {W},Heating Load Pass/Fail Convergence,Cooling Load Pass/Fail Convergence
 Warmup Convergence Information,PERIM,RunPeriod: ARCHSIM,1.6682778322E-002,4.7006787737E-002,Pass,Pass,7.4599479004E-002,0.2225961179,Pass,Pass
 Warmup Convergence Information,CORE,RunPeriod: ARCHSIM,4.3910750238E-003,1.8237155984E-002,Pass,Pass,8.4097801606E-002,0.1499473899,Pass,Pass
! <Program Control Information:Threads/Parallel Sims>, Threading Supported,Maximum Number of Threads, Env Set Threads (OMP_NUM_THREADS), EP Env Set Threads (EP_OMP_NUM_THREADS), IDF Set Threads, Number of Threads Used (Interior Radiant Exchange), Number Nominal Surfaces, Number Parallel Sims
Program Control:Threads/Parallel Sims, No,1, N/A, N/A, N/A, N/A, N/A, 0
End of Data
