  0
SECTION
  2
ENTITIES
999
DXF created from EnergyPlus
999
Program Version,EnergyPlus, Version 8.4.0-09f5359d8a, YMD=2023.08.02 14:39
999
Polygon Action,TRIANGULATE3DFACE
999
Color Scheme,Default
999
Text - True North
  0
TEXT
  8
1
  6
Continuous
 62
  3
 10
    99988.00000
 20
   100002.00000
 30
        0.10000
 40
 .25
  1
True North
 41
 0.0
  7
MONOTXT
210
0.0
220
0.0
230
1.0
999
Text - Building Title
  0
TEXT
  8
1
  6
Continuous
 62
  3
 10
    99985.00000
 20
    99998.00000
 30
        0.10000
 40
 .4
  1
Building - Building
 41
 0.0
  7
MONOTXT
210
0.0
220
0.0
230
1.0
999
North Arrow Stem
  0
3DFACE
  8
1
 62
  3
 10
    99989.00000
 20
   100002.00000
 30
        0.10000
 11
    99989.00000
 21
   100002.00000
 31
        0.00000
 12
    99989.00000
 22
    99999.00000
 32
        0.00000
 13
    99989.00000
 23
    99999.00000
 33
        0.10000
999
North Arrow Head 1
  0
3DFACE
  8
1
 62
  3
 10
    99989.00000
 20
   100002.00000
 30
        0.10000
 11
    99989.00000
 21
   100002.00000
 31
        0.00000
 12
    99988.50000
 22
   100001.13398
 32
        0.00000
 13
    99988.50000
 23
   100001.13398
 33
        0.10000
999
North Arrow Head 2
  0
3DFACE
  8
1
 62
  3
 10
    99989.00000
 20
   100002.00000
 30
        0.10000
 11
    99989.00000
 21
   100002.00000
 31
        0.00000
 12
    99989.50000
 22
   100001.13398
 32
        0.00000
 13
    99989.50000
 23
   100001.13398
 33
        0.10000
999
North Arrow Side 1
  0
3DFACE
  8
1
 62
  3
 10
    99988.50000
 20
   100003.50000
 30
        0.10000
 11
    99988.50000
 21
   100003.50000
 31
        0.00000
 12
    99988.50000
 22
   100002.50000
 32
        0.00000
 13
    99988.50000
 23
   100002.50000
 33
        0.10000
999
North Arrow Side 2
  0
3DFACE
  8
1
 62
  3
 10
    99988.50000
 20
   100003.50000
 30
        0.10000
 11
    99988.50000
 21
   100003.50000
 31
        0.00000
 12
    99989.50000
 22
   100002.50000
 32
        0.00000
 13
    99989.50000
 23
   100002.50000
 33
        0.10000
999
North Arrow Side 3
  0
3DFACE
  8
1
 62
  3
 10
    99989.50000
 20
   100003.50000
 30
        0.10000
 11
    99989.50000
 21
   100003.50000
 31
        0.00000
 12
    99989.50000
 22
   100002.50000
 32
        0.00000
 13
    99989.50000
 23
   100002.50000
 33
        0.10000
999
Zone Names
999
Zone=1:PERIM
999
Zone=2:CORE
999
Building Shading:SHADER_0
  0
3DFACE
  8
Building Shading
 62
195
 10
   959836.06250
 20
  1946496.87500
 30
       89.40830
 11
   959836.06250
 21
  1946496.87500
 31
       37.40830
 12
   959839.06250
 22
  1946483.37500
 32
       37.40830
 13
   959839.06250
 23
  1946483.37500
 33
       89.40830
999
Building Shading:Mir-SHADER_0
  0
3DFACE
  8
Building Shading
 62
195
 10
   959839.06250
 20
  1946483.37500
 30
       89.40830
 11
   959839.06250
 21
  1946483.37500
 31
       37.40830
 12
   959836.06250
 22
  1946496.87500
 32
       37.40830
 13
   959836.06250
 23
  1946496.87500
 33
       89.40830
999
Building Shading:SHADER_1
  0
3DFACE
  8
Building Shading
 62
195
 10
   959826.75000
 20
  1946562.87500
 30
       87.82830
 11
   959826.75000
 21
  1946562.87500
 31
       35.82830
 12
   959829.43750
 22
  1946551.12500
 32
       35.82830
 13
   959829.43750
 23
  1946551.12500
 33
       87.82830
999
Building Shading:Mir-SHADER_1
  0
3DFACE
  8
Building Shading
 62
195
 10
   959829.43750
 20
  1946551.12500
 30
       87.82830
 11
   959829.43750
 21
  1946551.12500
 31
       35.82830
 12
   959826.75000
 22
  1946562.87500
 32
       35.82830
 13
   959826.75000
 23
  1946562.87500
 33
       87.82830
999
Building Shading:SHADER_2
  0
3DFACE
  8
Building Shading
 62
195
 10
   959822.75000
 20
  1946589.87500
 30
       87.82830
 11
   959822.75000
 21
  1946589.87500
 31
       35.82830
 12
   959827.62500
 22
  1946568.25000
 32
       35.82830
 13
   959827.62500
 23
  1946568.25000
 33
       87.82830
999
Building Shading:Mir-SHADER_2
  0
3DFACE
  8
Building Shading
 62
195
 10
   959827.62500
 20
  1946568.25000
 30
       87.82830
 11
   959827.62500
 21
  1946568.25000
 31
       35.82830
 12
   959822.75000
 22
  1946589.87500
 32
       35.82830
 13
   959822.75000
 23
  1946589.87500
 33
       87.82830
999
Building Shading:SHADER_3
  0
3DFACE
  8
Building Shading
 62
195
 10
   959823.62500
 20
  1946592.87500
 30
       87.82830
 11
   959823.62500
 21
  1946592.87500
 31
       35.82830
 12
   959824.12500
 22
  1946590.12500
 32
       35.82830
 13
   959824.12500
 23
  1946590.12500
 33
       87.82830
999
Building Shading:Mir-SHADER_3
  0
3DFACE
  8
Building Shading
 62
195
 10
   959824.12500
 20
  1946590.12500
 30
       87.82830
 11
   959824.12500
 21
  1946590.12500
 31
       35.82830
 12
   959823.62500
 22
  1946592.87500
 32
       35.82830
 13
   959823.62500
 23
  1946592.87500
 33
       87.82830
999
PERIM:PERIM:F0
  0
3DFACE
  8
PERIM
 62
 43
 10
   959792.46430
 20
  1946573.13950
 30
       59.72640
 11
   959792.46430
 21
  1946573.13950
 31
       56.61820
 12
   959791.80520
 22
  1946576.06630
 32
       56.61820
 13
   959791.80520
 23
  1946576.06630
 33
       59.72640
999
PERIM:PERIM:F0:W0
  0
3DFACE
  8
PERIM
 62
143
 10
   959792.44230
 20
  1946573.23710
 30
       58.80030
 11
   959792.44230
 21
  1946573.23710
 31
       57.46820
 12
   959791.82720
 22
  1946575.96870
 32
       57.46820
 13
   959791.82720
 23
  1946575.96870
 33
       58.80030
999
PERIM:PERIM:F1
  0
3DFACE
  8
PERIM
 62
 43
 10
   959789.09180
 20
  1946575.45520
 30
       59.72640
 11
   959789.09180
 21
  1946575.45520
 31
       56.61820
 12
   959789.75080
 22
  1946572.52850
 32
       56.61820
 13
   959789.75080
 23
  1946572.52850
 33
       59.72640
999
PERIM:PERIM:F2
  0
3DFACE
  8
PERIM
 62
 43
 10
   959791.80520
 20
  1946576.06630
 30
       59.72640
 11
   959791.80520
 21
  1946576.06630
 31
       56.61820
 12
   959789.09180
 22
  1946575.45520
 32
       56.61820
 13
   959789.09180
 23
  1946575.45520
 33
       59.72640
999
PERIM:PERIM:F3
  0
3DFACE
  8
PERIM
 62
 43
 10
   959789.75080
 20
  1946572.52850
 30
       59.72640
 11
   959789.75080
 21
  1946572.52850
 31
       56.61820
 12
   959792.46430
 22
  1946573.13950
 32
       56.61820
 13
   959792.46430
 23
  1946573.13950
 33
       59.72640
999
PERIM:PERIM:F4
  0
3DFACE
  8
PERIM
 62
  8
 10
   959792.46430
 20
  1946573.13950
 30
       56.61820
 11
   959789.95750
 21
  1946572.57510
 31
       56.61820
 12
   959789.29840
 22
  1946575.50180
 32
       56.61820
 13
   959791.80520
 23
  1946576.06630
 33
       56.61820
999
PERIM:PERIM:F5
  0
3DFACE
  8
PERIM
 62
  8
 10
   959789.95750
 20
  1946572.57510
 30
       56.61820
 11
   959789.75080
 21
  1946572.52850
 31
       56.61820
 12
   959789.09180
 22
  1946575.45520
 32
       56.61820
 13
   959789.29840
 23
  1946575.50180
 33
       56.61820
999
PERIM:PERIM:F6
  0
3DFACE
  8
PERIM
 62
 15
 10
   959792.46430
 20
  1946573.13950
 30
       59.72640
 11
   959791.80520
 21
  1946576.06630
 31
       59.72640
 12
   959789.29840
 22
  1946575.50180
 32
       59.72640
 13
   959789.95750
 23
  1946572.57510
 33
       59.72640
999
PERIM:PERIM:F7
  0
3DFACE
  8
PERIM
 62
 15
 10
   959789.95750
 20
  1946572.57510
 30
       59.72640
 11
   959789.29840
 21
  1946575.50180
 31
       59.72640
 12
   959789.09180
 22
  1946575.45520
 32
       59.72640
 13
   959789.75080
 23
  1946572.52850
 33
       59.72640
999
CORE:CORE:F0
  0
3DFACE
  8
CORE
 62
 43
 10
   959789.75080
 20
  1946572.52850
 30
       59.72640
 11
   959789.75080
 21
  1946572.52850
 31
       56.61820
 12
   959789.09180
 22
  1946575.45520
 32
       56.61820
 13
   959789.09180
 23
  1946575.45520
 33
       59.72640
999
CORE:CORE:F1
  0
3DFACE
  8
CORE
 62
 43
 10
   959787.46100
 20
  1946575.08800
 30
       59.72640
 11
   959787.46100
 21
  1946575.08800
 31
       56.61820
 12
   959788.12010
 22
  1946572.16130
 32
       56.61820
 13
   959788.12010
 23
  1946572.16130
 33
       59.72640
999
CORE:CORE:F2
  0
3DFACE
  8
CORE
 62
 43
 10
   959789.09180
 20
  1946575.45520
 30
       59.72640
 11
   959789.09180
 21
  1946575.45520
 31
       56.61820
 12
   959787.46100
 22
  1946575.08800
 32
       56.61820
 13
   959787.46100
 23
  1946575.08800
 33
       59.72640
999
CORE:CORE:F3
  0
3DFACE
  8
CORE
 62
 43
 10
   959788.12010
 20
  1946572.16130
 30
       59.72640
 11
   959788.12010
 21
  1946572.16130
 31
       56.61820
 12
   959789.75080
 22
  1946572.52850
 32
       56.61820
 13
   959789.75080
 23
  1946572.52850
 33
       59.72640
999
CORE:CORE:F4
  0
3DFACE
  8
CORE
 62
  8
 10
   959789.75080
 20
  1946572.52850
 30
       56.61820
 11
   959788.24430
 21
  1946572.18930
 31
       56.61820
 12
   959787.58520
 22
  1946575.11600
 32
       56.61820
 13
   959789.09180
 23
  1946575.45520
 33
       56.61820
999
CORE:CORE:F5
  0
3DFACE
  8
CORE
 62
  8
 10
   959788.24430
 20
  1946572.18930
 30
       56.61820
 11
   959788.12010
 21
  1946572.16130
 31
       56.61820
 12
   959787.46100
 22
  1946575.08800
 32
       56.61820
 13
   959787.58520
 23
  1946575.11600
 33
       56.61820
999
CORE:CORE:F6
  0
3DFACE
  8
CORE
 62
 15
 10
   959789.75080
 20
  1946572.52850
 30
       59.72640
 11
   959789.09180
 21
  1946575.45520
 31
       59.72640
 12
   959787.58520
 22
  1946575.11600
 32
       59.72640
 13
   959788.24430
 23
  1946572.18930
 33
       59.72640
999
CORE:CORE:F7
  0
3DFACE
  8
CORE
 62
 15
 10
   959788.24430
 20
  1946572.18930
 30
       59.72640
 11
   959787.58520
 21
  1946575.11600
 31
       59.72640
 12
   959787.46100
 22
  1946575.08800
 32
       59.72640
 13
   959788.12010
 23
  1946572.16130
 33
       59.72640
  0
ENDSEC
  0
EOF
