  0
SECTION
  2
ENTITIES
999
DXF created from EnergyPlus
999
Program Version,EnergyPlus, Version 8.4.0-09f5359d8a, YMD=2023.08.02 14:39
999
Polygon Action,TRIANGULATE3DFACE
999
Color Scheme,Default
999
Text - True North
  0
TEXT
  8
1
  6
Continuous
 62
  3
 10
    99988.00000
 20
   100002.00000
 30
        0.10000
 40
 .25
  1
True North
 41
 0.0
  7
MONOTXT
210
0.0
220
0.0
230
1.0
999
Text - Building Title
  0
TEXT
  8
1
  6
Continuous
 62
  3
 10
    99985.00000
 20
    99998.00000
 30
        0.10000
 40
 .4
  1
Building - Building
 41
 0.0
  7
MONOTXT
210
0.0
220
0.0
230
1.0
999
North Arrow Stem
  0
3DFACE
  8
1
 62
  3
 10
    99989.00000
 20
   100002.00000
 30
        0.10000
 11
    99989.00000
 21
   100002.00000
 31
        0.00000
 12
    99989.00000
 22
    99999.00000
 32
        0.00000
 13
    99989.00000
 23
    99999.00000
 33
        0.10000
999
North Arrow Head 1
  0
3DFACE
  8
1
 62
  3
 10
    99989.00000
 20
   100002.00000
 30
        0.10000
 11
    99989.00000
 21
   100002.00000
 31
        0.00000
 12
    99988.50000
 22
   100001.13398
 32
        0.00000
 13
    99988.50000
 23
   100001.13398
 33
        0.10000
999
North Arrow Head 2
  0
3DFACE
  8
1
 62
  3
 10
    99989.00000
 20
   100002.00000
 30
        0.10000
 11
    99989.00000
 21
   100002.00000
 31
        0.00000
 12
    99989.50000
 22
   100001.13398
 32
        0.00000
 13
    99989.50000
 23
   100001.13398
 33
        0.10000
999
North Arrow Side 1
  0
3DFACE
  8
1
 62
  3
 10
    99988.50000
 20
   100003.50000
 30
        0.10000
 11
    99988.50000
 21
   100003.50000
 31
        0.00000
 12
    99988.50000
 22
   100002.50000
 32
        0.00000
 13
    99988.50000
 23
   100002.50000
 33
        0.10000
999
North Arrow Side 2
  0
3DFACE
  8
1
 62
  3
 10
    99988.50000
 20
   100003.50000
 30
        0.10000
 11
    99988.50000
 21
   100003.50000
 31
        0.00000
 12
    99989.50000
 22
   100002.50000
 32
        0.00000
 13
    99989.50000
 23
   100002.50000
 33
        0.10000
999
North Arrow Side 3
  0
3DFACE
  8
1
 62
  3
 10
    99989.50000
 20
   100003.50000
 30
        0.10000
 11
    99989.50000
 21
   100003.50000
 31
        0.00000
 12
    99989.50000
 22
   100002.50000
 32
        0.00000
 13
    99989.50000
 23
   100002.50000
 33
        0.10000
999
Zone Names
999
Zone=1:PERIM
999
Zone=2:CORE
999
Building Shading:SHADER_0
  0
3DFACE
  8
Building Shading
 62
195
 10
   960525.68750
 20
  1945555.75000
 30
       33.07690
 11
   960525.68750
 21
  1945555.75000
 31
       20.07690
 12
   960517.06250
 22
  1945552.25000
 32
       20.07690
 13
   960517.06250
 23
  1945552.25000
 33
       33.07690
999
Building Shading:Mir-SHADER_0
  0
3DFACE
  8
Building Shading
 62
195
 10
   960517.06250
 20
  1945552.25000
 30
       33.07690
 11
   960517.06250
 21
  1945552.25000
 31
       20.07690
 12
   960525.68750
 22
  1945555.75000
 32
       20.07690
 13
   960525.68750
 23
  1945555.75000
 33
       33.07690
999
Building Shading:SHADER_1
  0
3DFACE
  8
Building Shading
 62
195
 10
   960537.18750
 20
  1945558.62500
 30
       34.01440
 11
   960537.18750
 21
  1945558.62500
 31
       20.01440
 12
   960537.56250
 22
  1945557.50000
 32
       20.01440
 13
   960537.56250
 23
  1945557.50000
 33
       34.01440
999
Building Shading:Mir-SHADER_1
  0
3DFACE
  8
Building Shading
 62
195
 10
   960537.56250
 20
  1945557.50000
 30
       34.01440
 11
   960537.56250
 21
  1945557.50000
 31
       20.01440
 12
   960537.18750
 22
  1945558.62500
 32
       20.01440
 13
   960537.18750
 23
  1945558.62500
 33
       34.01440
999
Building Shading:SHADER_2
  0
3DFACE
  8
Building Shading
 62
195
 10
   960553.75000
 20
  1945566.12500
 30
       34.01440
 11
   960553.75000
 21
  1945566.12500
 31
       20.01440
 12
   960545.18750
 22
  1945562.12500
 32
       20.01440
 13
   960545.18750
 23
  1945562.12500
 33
       34.01440
999
Building Shading:Mir-SHADER_2
  0
3DFACE
  8
Building Shading
 62
195
 10
   960545.18750
 20
  1945562.12500
 30
       34.01440
 11
   960545.18750
 21
  1945562.12500
 31
       20.01440
 12
   960553.75000
 22
  1945566.12500
 32
       20.01440
 13
   960553.75000
 23
  1945566.12500
 33
       34.01440
999
Building Shading:SHADER_3
  0
3DFACE
  8
Building Shading
 62
195
 10
   960575.56250
 20
  1945578.25000
 30
       45.01810
 11
   960575.56250
 21
  1945578.25000
 31
       20.01810
 12
   960576.93750
 22
  1945575.37500
 32
       20.01810
 13
   960576.93750
 23
  1945575.37500
 33
       45.01810
999
Building Shading:Mir-SHADER_3
  0
3DFACE
  8
Building Shading
 62
195
 10
   960576.93750
 20
  1945575.37500
 30
       45.01810
 11
   960576.93750
 21
  1945575.37500
 31
       20.01810
 12
   960575.56250
 22
  1945578.25000
 32
       20.01810
 13
   960575.56250
 23
  1945578.25000
 33
       45.01810
999
PERIM:PERIM:F0
  0
3DFACE
  8
PERIM
 62
 43
 10
   960525.80610
 20
  1945570.03130
 30
       23.22950
 11
   960525.80610
 21
  1945570.03130
 31
       20.12130
 12
   960528.55010
 22
  1945571.24400
 32
       20.12130
 13
   960528.55010
 23
  1945571.24400
 33
       23.22950
999
PERIM:PERIM:F0:W0
  0
3DFACE
  8
PERIM
 62
143
 10
   960525.89760
 20
  1945570.07170
 30
       22.30340
 11
   960525.89760
 21
  1945570.07170
 31
       20.97130
 12
   960528.45860
 22
  1945571.20360
 32
       20.97130
 13
   960528.45860
 23
  1945571.20360
 33
       22.30340
999
PERIM:PERIM:F1
  0
3DFACE
  8
PERIM
 62
 43
 10
   960527.42580
 20
  1945573.78800
 30
       23.22950
 11
   960527.42580
 21
  1945573.78800
 31
       20.12130
 12
   960524.68180
 22
  1945572.57530
 32
       20.12130
 13
   960524.68180
 23
  1945572.57530
 33
       23.22950
999
PERIM:PERIM:F2
  0
3DFACE
  8
PERIM
 62
 43
 10
   960528.55010
 20
  1945571.24400
 30
       23.22950
 11
   960528.55010
 21
  1945571.24400
 31
       20.12130
 12
   960527.42580
 22
  1945573.78800
 32
       20.12130
 13
   960527.42580
 23
  1945573.78800
 33
       23.22950
999
PERIM:PERIM:F3
  0
3DFACE
  8
PERIM
 62
 43
 10
   960524.68180
 20
  1945572.57530
 30
       23.22950
 11
   960524.68180
 21
  1945572.57530
 31
       20.12130
 12
   960525.80610
 22
  1945570.03130
 32
       20.12130
 13
   960525.80610
 23
  1945570.03130
 33
       23.22950
999
PERIM:PERIM:F4
  0
3DFACE
  8
PERIM
 62
  8
 10
   960525.80610
 20
  1945570.03130
 30
       20.12130
 11
   960524.76740
 21
  1945572.38160
 31
       20.12130
 12
   960527.51140
 22
  1945573.59430
 32
       20.12130
 13
   960528.55010
 23
  1945571.24400
 33
       20.12130
999
PERIM:PERIM:F5
  0
3DFACE
  8
PERIM
 62
  8
 10
   960524.76740
 20
  1945572.38160
 30
       20.12130
 11
   960524.68180
 21
  1945572.57530
 31
       20.12130
 12
   960527.42580
 22
  1945573.78800
 32
       20.12130
 13
   960527.51140
 23
  1945573.59430
 33
       20.12130
999
PERIM:PERIM:F6
  0
3DFACE
  8
PERIM
 62
 15
 10
   960525.80610
 20
  1945570.03130
 30
       23.22950
 11
   960528.55010
 21
  1945571.24400
 31
       23.22950
 12
   960527.51140
 22
  1945573.59430
 32
       23.22950
 13
   960524.76740
 23
  1945572.38160
 33
       23.22950
999
PERIM:PERIM:F7
  0
3DFACE
  8
PERIM
 62
 15
 10
   960524.76740
 20
  1945572.38160
 30
       23.22950
 11
   960527.51140
 21
  1945573.59430
 31
       23.22950
 12
   960527.42580
 22
  1945573.78800
 32
       23.22950
 13
   960524.68180
 23
  1945572.57530
 33
       23.22950
999
CORE:CORE:F0
  0
3DFACE
  8
CORE
 62
 43
 10
   960524.68180
 20
  1945572.57530
 30
       23.22950
 11
   960524.68180
 21
  1945572.57530
 31
       20.12130
 12
   960527.42580
 22
  1945573.78800
 32
       20.12130
 13
   960527.42580
 23
  1945573.78800
 33
       23.22950
999
CORE:CORE:F1
  0
3DFACE
  8
CORE
 62
 43
 10
   960526.75010
 20
  1945575.31690
 30
       23.22950
 11
   960526.75010
 21
  1945575.31690
 31
       20.12130
 12
   960524.00610
 22
  1945574.10430
 32
       20.12130
 13
   960524.00610
 23
  1945574.10430
 33
       23.22950
999
CORE:CORE:F2
  0
3DFACE
  8
CORE
 62
 43
 10
   960527.42580
 20
  1945573.78800
 30
       23.22950
 11
   960527.42580
 21
  1945573.78800
 31
       20.12130
 12
   960526.75010
 22
  1945575.31690
 32
       20.12130
 13
   960526.75010
 23
  1945575.31690
 33
       23.22950
999
CORE:CORE:F3
  0
3DFACE
  8
CORE
 62
 43
 10
   960524.00610
 20
  1945574.10430
 30
       23.22950
 11
   960524.00610
 21
  1945574.10430
 31
       20.12130
 12
   960524.68180
 22
  1945572.57530
 32
       20.12130
 13
   960524.68180
 23
  1945572.57530
 33
       23.22950
999
CORE:CORE:F4
  0
3DFACE
  8
CORE
 62
  8
 10
   960524.68180
 20
  1945572.57530
 30
       20.12130
 11
   960524.05760
 21
  1945573.98780
 31
       20.12130
 12
   960526.80150
 22
  1945575.20050
 32
       20.12130
 13
   960527.42580
 23
  1945573.78800
 33
       20.12130
999
CORE:CORE:F5
  0
3DFACE
  8
CORE
 62
  8
 10
   960524.05760
 20
  1945573.98780
 30
       20.12130
 11
   960524.00610
 21
  1945574.10430
 31
       20.12130
 12
   960526.75010
 22
  1945575.31690
 32
       20.12130
 13
   960526.80150
 23
  1945575.20050
 33
       20.12130
999
CORE:CORE:F6
  0
3DFACE
  8
CORE
 62
 15
 10
   960524.68180
 20
  1945572.57530
 30
       23.22950
 11
   960527.42580
 21
  1945573.78800
 31
       23.22950
 12
   960526.80150
 22
  1945575.20050
 32
       23.22950
 13
   960524.05760
 23
  1945573.98780
 33
       23.22950
999
CORE:CORE:F7
  0
3DFACE
  8
CORE
 62
 15
 10
   960524.05760
 20
  1945573.98780
 30
       23.22950
 11
   960526.80150
 21
  1945575.20050
 31
       23.22950
 12
   960526.75010
 22
  1945575.31690
 32
       23.22950
 13
   960524.00610
 23
  1945574.10430
 33
       23.22950
  0
ENDSEC
  0
EOF
