  0
SECTION
  2
ENTITIES
999
DXF created from EnergyPlus
999
Program Version,EnergyPlus, Version 8.4.0-09f5359d8a, YMD=2023.08.02 14:39
999
Polygon Action,TRIANGULATE3DFACE
999
Color Scheme,Default
999
Text - True North
  0
TEXT
  8
1
  6
Continuous
 62
  3
 10
    99988.00000
 20
   100002.00000
 30
        0.10000
 40
 .25
  1
True North
 41
 0.0
  7
MONOTXT
210
0.0
220
0.0
230
1.0
999
Text - Building Title
  0
TEXT
  8
1
  6
Continuous
 62
  3
 10
    99985.00000
 20
    99998.00000
 30
        0.10000
 40
 .4
  1
Building - Building
 41
 0.0
  7
MONOTXT
210
0.0
220
0.0
230
1.0
999
North Arrow Stem
  0
3DFACE
  8
1
 62
  3
 10
    99989.00000
 20
   100002.00000
 30
        0.10000
 11
    99989.00000
 21
   100002.00000
 31
        0.00000
 12
    99989.00000
 22
    99999.00000
 32
        0.00000
 13
    99989.00000
 23
    99999.00000
 33
        0.10000
999
North Arrow Head 1
  0
3DFACE
  8
1
 62
  3
 10
    99989.00000
 20
   100002.00000
 30
        0.10000
 11
    99989.00000
 21
   100002.00000
 31
        0.00000
 12
    99988.50000
 22
   100001.13398
 32
        0.00000
 13
    99988.50000
 23
   100001.13398
 33
        0.10000
999
North Arrow Head 2
  0
3DFACE
  8
1
 62
  3
 10
    99989.00000
 20
   100002.00000
 30
        0.10000
 11
    99989.00000
 21
   100002.00000
 31
        0.00000
 12
    99989.50000
 22
   100001.13398
 32
        0.00000
 13
    99989.50000
 23
   100001.13398
 33
        0.10000
999
North Arrow Side 1
  0
3DFACE
  8
1
 62
  3
 10
    99988.50000
 20
   100003.50000
 30
        0.10000
 11
    99988.50000
 21
   100003.50000
 31
        0.00000
 12
    99988.50000
 22
   100002.50000
 32
        0.00000
 13
    99988.50000
 23
   100002.50000
 33
        0.10000
999
North Arrow Side 2
  0
3DFACE
  8
1
 62
  3
 10
    99988.50000
 20
   100003.50000
 30
        0.10000
 11
    99988.50000
 21
   100003.50000
 31
        0.00000
 12
    99989.50000
 22
   100002.50000
 32
        0.00000
 13
    99989.50000
 23
   100002.50000
 33
        0.10000
999
North Arrow Side 3
  0
3DFACE
  8
1
 62
  3
 10
    99989.50000
 20
   100003.50000
 30
        0.10000
 11
    99989.50000
 21
   100003.50000
 31
        0.00000
 12
    99989.50000
 22
   100002.50000
 32
        0.00000
 13
    99989.50000
 23
   100002.50000
 33
        0.10000
999
Zone Names
999
Zone=1:PERIM
999
Zone=2:CORE
999
PERIM:PERIM:F0
  0
3DFACE
  8
PERIM
 62
 43
 10
   960195.35870
 20
  1946176.19110
 30
       67.36120
 11
   960195.35870
 21
  1946176.19110
 31
       64.25300
 12
   960196.38690
 22
  1946173.37280
 32
       64.25300
 13
   960196.38690
 23
  1946173.37280
 33
       67.36120
999
PERIM:PERIM:F0:W0
  0
3DFACE
  8
PERIM
 62
143
 10
   960195.39300
 20
  1946176.09720
 30
       66.43510
 11
   960195.39300
 21
  1946176.09720
 31
       65.10300
 12
   960196.35260
 22
  1946173.46670
 32
       65.10300
 13
   960196.35260
 23
  1946173.46670
 33
       66.43510
999
PERIM:PERIM:F1
  0
3DFACE
  8
PERIM
 62
 43
 10
   960198.99980
 20
  1946174.32600
 30
       67.36120
 11
   960198.99980
 21
  1946174.32600
 31
       64.25300
 12
   960197.97170
 22
  1946177.14430
 32
       64.25300
 13
   960197.97170
 23
  1946177.14430
 33
       67.36120
999
PERIM:PERIM:F2
  0
3DFACE
  8
PERIM
 62
 43
 10
   960196.38690
 20
  1946173.37280
 30
       67.36120
 11
   960196.38690
 21
  1946173.37280
 31
       64.25300
 12
   960198.99980
 22
  1946174.32600
 32
       64.25300
 13
   960198.99980
 23
  1946174.32600
 33
       67.36120
999
PERIM:PERIM:F3
  0
3DFACE
  8
PERIM
 62
 43
 10
   960197.97170
 20
  1946177.14430
 30
       67.36120
 11
   960197.97170
 21
  1946177.14430
 31
       64.25300
 12
   960195.35870
 22
  1946176.19110
 32
       64.25300
 13
   960195.35870
 23
  1946176.19110
 33
       67.36120
999
PERIM:PERIM:F4
  0
3DFACE
  8
PERIM
 62
  8
 10
   960195.35870
 20
  1946176.19110
 30
       64.25300
 11
   960197.77270
 21
  1946177.07170
 31
       64.25300
 12
   960198.80080
 22
  1946174.25340
 32
       64.25300
 13
   960196.38690
 23
  1946173.37280
 33
       64.25300
999
PERIM:PERIM:F5
  0
3DFACE
  8
PERIM
 62
  8
 10
   960197.77270
 20
  1946177.07170
 30
       64.25300
 11
   960197.97170
 21
  1946177.14430
 31
       64.25300
 12
   960198.99980
 22
  1946174.32600
 32
       64.25300
 13
   960198.80080
 23
  1946174.25340
 33
       64.25300
999
PERIM:PERIM:F6
  0
3DFACE
  8
PERIM
 62
 15
 10
   960195.35870
 20
  1946176.19110
 30
       67.36120
 11
   960196.38690
 21
  1946173.37280
 31
       67.36120
 12
   960198.80080
 22
  1946174.25340
 32
       67.36120
 13
   960197.77270
 23
  1946177.07170
 33
       67.36120
999
PERIM:PERIM:F7
  0
3DFACE
  8
PERIM
 62
 15
 10
   960197.77270
 20
  1946177.07170
 30
       67.36120
 11
   960198.80080
 21
  1946174.25340
 31
       67.36120
 12
   960198.99980
 22
  1946174.32600
 32
       67.36120
 13
   960197.97170
 23
  1946177.14430
 33
       67.36120
999
CORE:CORE:F0
  0
3DFACE
  8
CORE
 62
 43
 10
   960197.97170
 20
  1946177.14430
 30
       67.36120
 11
   960197.97170
 21
  1946177.14430
 31
       64.25300
 12
   960198.99980
 22
  1946174.32600
 32
       64.25300
 13
   960198.99980
 23
  1946174.32600
 33
       67.36120
999
CORE:CORE:F1
  0
3DFACE
  8
CORE
 62
 43
 10
   960200.57020
 20
  1946174.89890
 30
       67.36120
 11
   960200.57020
 21
  1946174.89890
 31
       64.25300
 12
   960199.54200
 22
  1946177.71720
 32
       64.25300
 13
   960199.54200
 23
  1946177.71720
 33
       67.36120
999
CORE:CORE:F2
  0
3DFACE
  8
CORE
 62
 43
 10
   960198.99980
 20
  1946174.32600
 30
       67.36120
 11
   960198.99980
 21
  1946174.32600
 31
       64.25300
 12
   960200.57020
 22
  1946174.89890
 32
       64.25300
 13
   960200.57020
 23
  1946174.89890
 33
       67.36120
999
CORE:CORE:F3
  0
3DFACE
  8
CORE
 62
 43
 10
   960199.54200
 20
  1946177.71720
 30
       67.36120
 11
   960199.54200
 21
  1946177.71720
 31
       64.25300
 12
   960197.97170
 22
  1946177.14430
 32
       64.25300
 13
   960197.97170
 23
  1946177.14430
 33
       67.36120
999
CORE:CORE:F4
  0
3DFACE
  8
CORE
 62
  8
 10
   960197.97170
 20
  1946177.14430
 30
       64.25300
 11
   960199.42250
 21
  1946177.67360
 31
       64.25300
 12
   960200.45060
 22
  1946174.85530
 32
       64.25300
 13
   960198.99980
 23
  1946174.32600
 33
       64.25300
999
CORE:CORE:F5
  0
3DFACE
  8
CORE
 62
  8
 10
   960199.42250
 20
  1946177.67360
 30
       64.25300
 11
   960199.54200
 21
  1946177.71720
 31
       64.25300
 12
   960200.57020
 22
  1946174.89890
 32
       64.25300
 13
   960200.45060
 23
  1946174.85530
 33
       64.25300
999
CORE:CORE:F6
  0
3DFACE
  8
CORE
 62
 15
 10
   960197.97170
 20
  1946177.14430
 30
       67.36120
 11
   960198.99980
 21
  1946174.32600
 31
       67.36120
 12
   960200.45060
 22
  1946174.85530
 32
       67.36120
 13
   960199.42250
 23
  1946177.67360
 33
       67.36120
999
CORE:CORE:F7
  0
3DFACE
  8
CORE
 62
 15
 10
   960199.42250
 20
  1946177.67360
 30
       67.36120
 11
   960200.45060
 21
  1946174.85530
 31
       67.36120
 12
   960200.57020
 22
  1946174.89890
 32
       67.36120
 13
   960199.54200
 23
  1946177.71720
 33
       67.36120
  0
ENDSEC
  0
EOF
