  0
SECTION
  2
ENTITIES
999
DXF created from EnergyPlus
999
Program Version,EnergyPlus, Version 8.4.0-09f5359d8a, YMD=2023.08.02 14:39
999
Polygon Action,TRIANGULATE3DFACE
999
Color Scheme,Default
999
Text - True North
  0
TEXT
  8
1
  6
Continuous
 62
  3
 10
    99988.00000
 20
   100002.00000
 30
        0.10000
 40
 .25
  1
True North
 41
 0.0
  7
MONOTXT
210
0.0
220
0.0
230
1.0
999
Text - Building Title
  0
TEXT
  8
1
  6
Continuous
 62
  3
 10
    99985.00000
 20
    99998.00000
 30
        0.10000
 40
 .4
  1
Building - Building
 41
 0.0
  7
MONOTXT
210
0.0
220
0.0
230
1.0
999
North Arrow Stem
  0
3DFACE
  8
1
 62
  3
 10
    99989.00000
 20
   100002.00000
 30
        0.10000
 11
    99989.00000
 21
   100002.00000
 31
        0.00000
 12
    99989.00000
 22
    99999.00000
 32
        0.00000
 13
    99989.00000
 23
    99999.00000
 33
        0.10000
999
North Arrow Head 1
  0
3DFACE
  8
1
 62
  3
 10
    99989.00000
 20
   100002.00000
 30
        0.10000
 11
    99989.00000
 21
   100002.00000
 31
        0.00000
 12
    99988.50000
 22
   100001.13398
 32
        0.00000
 13
    99988.50000
 23
   100001.13398
 33
        0.10000
999
North Arrow Head 2
  0
3DFACE
  8
1
 62
  3
 10
    99989.00000
 20
   100002.00000
 30
        0.10000
 11
    99989.00000
 21
   100002.00000
 31
        0.00000
 12
    99989.50000
 22
   100001.13398
 32
        0.00000
 13
    99989.50000
 23
   100001.13398
 33
        0.10000
999
North Arrow Side 1
  0
3DFACE
  8
1
 62
  3
 10
    99988.50000
 20
   100003.50000
 30
        0.10000
 11
    99988.50000
 21
   100003.50000
 31
        0.00000
 12
    99988.50000
 22
   100002.50000
 32
        0.00000
 13
    99988.50000
 23
   100002.50000
 33
        0.10000
999
North Arrow Side 2
  0
3DFACE
  8
1
 62
  3
 10
    99988.50000
 20
   100003.50000
 30
        0.10000
 11
    99988.50000
 21
   100003.50000
 31
        0.00000
 12
    99989.50000
 22
   100002.50000
 32
        0.00000
 13
    99989.50000
 23
   100002.50000
 33
        0.10000
999
North Arrow Side 3
  0
3DFACE
  8
1
 62
  3
 10
    99989.50000
 20
   100003.50000
 30
        0.10000
 11
    99989.50000
 21
   100003.50000
 31
        0.00000
 12
    99989.50000
 22
   100002.50000
 32
        0.00000
 13
    99989.50000
 23
   100002.50000
 33
        0.10000
999
Zone Names
999
Zone=1:PERIM
999
Zone=2:CORE
999
Building Shading:SHADER_0
  0
3DFACE
  8
Building Shading
 62
195
 10
   959796.06250
 20
  1946546.00000
 30
       96.98660
 11
   959796.06250
 21
  1946546.00000
 31
       37.98660
 12
   959795.50000
 22
  1946548.25000
 32
       37.98660
 13
   959795.50000
 23
  1946548.25000
 33
       96.98660
999
Building Shading:Mir-SHADER_0
  0
3DFACE
  8
Building Shading
 62
195
 10
   959795.50000
 20
  1946548.25000
 30
       96.98660
 11
   959795.50000
 21
  1946548.25000
 31
       37.98660
 12
   959796.06250
 22
  1946546.00000
 32
       37.98660
 13
   959796.06250
 23
  1946546.00000
 33
       96.98660
999
Building Shading:SHADER_1
  0
3DFACE
  8
Building Shading
 62
195
 10
   959798.37500
 20
  1946546.50000
 30
       96.98660
 11
   959798.37500
 21
  1946546.50000
 31
       37.98660
 12
   959796.06250
 22
  1946546.00000
 32
       37.98660
 13
   959796.06250
 23
  1946546.00000
 33
       96.98660
999
Building Shading:Mir-SHADER_1
  0
3DFACE
  8
Building Shading
 62
195
 10
   959796.06250
 20
  1946546.00000
 30
       96.98660
 11
   959796.06250
 21
  1946546.00000
 31
       37.98660
 12
   959798.37500
 22
  1946546.50000
 32
       37.98660
 13
   959798.37500
 23
  1946546.50000
 33
       96.98660
999
Building Shading:SHADER_2
  0
3DFACE
  8
Building Shading
 62
195
 10
   959844.31250
 20
  1946518.75000
 30
       89.40830
 11
   959844.31250
 21
  1946518.75000
 31
       37.40830
 12
   959848.43750
 22
  1946499.62500
 32
       37.40830
 13
   959848.43750
 23
  1946499.62500
 33
       89.40830
999
Building Shading:Mir-SHADER_2
  0
3DFACE
  8
Building Shading
 62
195
 10
   959848.43750
 20
  1946499.62500
 30
       89.40830
 11
   959848.43750
 21
  1946499.62500
 31
       37.40830
 12
   959844.31250
 22
  1946518.75000
 32
       37.40830
 13
   959844.31250
 23
  1946518.75000
 33
       89.40830
999
PERIM:PERIM:F0
  0
3DFACE
  8
PERIM
 62
 43
 10
   959794.42740
 20
  1946548.05320
 30
       62.83170
 11
   959794.42740
 21
  1946548.05320
 31
       59.72350
 12
   959797.36870
 22
  1946548.64420
 32
       59.72350
 13
   959797.36870
 23
  1946548.64420
 33
       62.83170
999
PERIM:PERIM:F0:W0
  0
3DFACE
  8
PERIM
 62
143
 10
   959794.52550
 20
  1946548.07290
 30
       61.90560
 11
   959794.52550
 21
  1946548.07290
 31
       60.57350
 12
   959797.27060
 22
  1946548.62450
 32
       60.57350
 13
   959797.27060
 23
  1946548.62450
 33
       61.90560
999
PERIM:PERIM:F1
  0
3DFACE
  8
PERIM
 62
 43
 10
   959796.82080
 20
  1946551.37100
 30
       62.83170
 11
   959796.82080
 21
  1946551.37100
 31
       59.72350
 12
   959793.87960
 22
  1946550.78010
 32
       59.72350
 13
   959793.87960
 23
  1946550.78010
 33
       62.83170
999
PERIM:PERIM:F2
  0
3DFACE
  8
PERIM
 62
 43
 10
   959797.36870
 20
  1946548.64420
 30
       62.83170
 11
   959797.36870
 21
  1946548.64420
 31
       59.72350
 12
   959796.82080
 22
  1946551.37100
 32
       59.72350
 13
   959796.82080
 23
  1946551.37100
 33
       62.83170
999
PERIM:PERIM:F3
  0
3DFACE
  8
PERIM
 62
 43
 10
   959793.87960
 20
  1946550.78010
 30
       62.83170
 11
   959793.87960
 21
  1946550.78010
 31
       59.72350
 12
   959794.42740
 22
  1946548.05320
 32
       59.72350
 13
   959794.42740
 23
  1946548.05320
 33
       62.83170
999
PERIM:PERIM:F4
  0
3DFACE
  8
PERIM
 62
  8
 10
   959794.42740
 20
  1946548.05320
 30
       59.72350
 11
   959793.92130
 21
  1946550.57240
 31
       59.72350
 12
   959796.86250
 22
  1946551.16340
 32
       59.72350
 13
   959797.36870
 23
  1946548.64420
 33
       59.72350
999
PERIM:PERIM:F5
  0
3DFACE
  8
PERIM
 62
  8
 10
   959793.92130
 20
  1946550.57240
 30
       59.72350
 11
   959793.87960
 21
  1946550.78010
 31
       59.72350
 12
   959796.82080
 22
  1946551.37100
 32
       59.72350
 13
   959796.86250
 23
  1946551.16340
 33
       59.72350
999
PERIM:PERIM:F6
  0
3DFACE
  8
PERIM
 62
 15
 10
   959794.42740
 20
  1946548.05320
 30
       62.83170
 11
   959797.36870
 21
  1946548.64420
 31
       62.83170
 12
   959796.86250
 22
  1946551.16340
 32
       62.83170
 13
   959793.92130
 23
  1946550.57240
 33
       62.83170
999
PERIM:PERIM:F7
  0
3DFACE
  8
PERIM
 62
 15
 10
   959793.92130
 20
  1946550.57240
 30
       62.83170
 11
   959796.86250
 21
  1946551.16340
 31
       62.83170
 12
   959796.82080
 22
  1946551.37100
 32
       62.83170
 13
   959793.87960
 23
  1946550.78010
 33
       62.83170
999
CORE:CORE:F0
  0
3DFACE
  8
CORE
 62
 43
 10
   959793.87960
 20
  1946550.78010
 30
       62.83170
 11
   959793.87960
 21
  1946550.78010
 31
       59.72350
 12
   959796.82080
 22
  1946551.37100
 32
       59.72350
 13
   959796.82080
 23
  1946551.37100
 33
       62.83170
999
CORE:CORE:F1
  0
3DFACE
  8
CORE
 62
 43
 10
   959796.49150
 20
  1946553.00990
 30
       62.83170
 11
   959796.49150
 21
  1946553.00990
 31
       59.72350
 12
   959793.55030
 22
  1946552.41890
 32
       59.72350
 13
   959793.55030
 23
  1946552.41890
 33
       62.83170
999
CORE:CORE:F2
  0
3DFACE
  8
CORE
 62
 43
 10
   959796.82080
 20
  1946551.37100
 30
       62.83170
 11
   959796.82080
 21
  1946551.37100
 31
       59.72350
 12
   959796.49150
 22
  1946553.00990
 32
       59.72350
 13
   959796.49150
 23
  1946553.00990
 33
       62.83170
999
CORE:CORE:F3
  0
3DFACE
  8
CORE
 62
 43
 10
   959793.55030
 20
  1946552.41890
 30
       62.83170
 11
   959793.55030
 21
  1946552.41890
 31
       59.72350
 12
   959793.87960
 22
  1946550.78010
 32
       59.72350
 13
   959793.87960
 23
  1946550.78010
 33
       62.83170
999
CORE:CORE:F4
  0
3DFACE
  8
CORE
 62
  8
 10
   959793.87960
 20
  1946550.78010
 30
       59.72350
 11
   959793.57540
 21
  1946552.29410
 31
       59.72350
 12
   959796.51660
 22
  1946552.88510
 32
       59.72350
 13
   959796.82080
 23
  1946551.37100
 33
       59.72350
999
CORE:CORE:F5
  0
3DFACE
  8
CORE
 62
  8
 10
   959793.57540
 20
  1946552.29410
 30
       59.72350
 11
   959793.55030
 21
  1946552.41890
 31
       59.72350
 12
   959796.49150
 22
  1946553.00990
 32
       59.72350
 13
   959796.51660
 23
  1946552.88510
 33
       59.72350
999
CORE:CORE:F6
  0
3DFACE
  8
CORE
 62
 15
 10
   959793.87960
 20
  1946550.78010
 30
       62.83170
 11
   959796.82080
 21
  1946551.37100
 31
       62.83170
 12
   959796.51660
 22
  1946552.88510
 32
       62.83170
 13
   959793.57540
 23
  1946552.29410
 33
       62.83170
999
CORE:CORE:F7
  0
3DFACE
  8
CORE
 62
 15
 10
   959793.57540
 20
  1946552.29410
 30
       62.83170
 11
   959796.51660
 21
  1946552.88510
 31
       62.83170
 12
   959796.49150
 22
  1946553.00990
 32
       62.83170
 13
   959793.55030
 23
  1946552.41890
 33
       62.83170
  0
ENDSEC
  0
EOF
