  0
SECTION
  2
ENTITIES
999
DXF created from EnergyPlus
999
Program Version,EnergyPlus, Version 8.4.0-09f5359d8a, YMD=2023.08.02 14:39
999
Polygon Action,TRIANGULATE3DFACE
999
Color Scheme,Default
999
Text - True North
  0
TEXT
  8
1
  6
Continuous
 62
  3
 10
    99988.00000
 20
   100002.00000
 30
        0.10000
 40
 .25
  1
True North
 41
 0.0
  7
MONOTXT
210
0.0
220
0.0
230
1.0
999
Text - Building Title
  0
TEXT
  8
1
  6
Continuous
 62
  3
 10
    99985.00000
 20
    99998.00000
 30
        0.10000
 40
 .4
  1
Building - Building
 41
 0.0
  7
MONOTXT
210
0.0
220
0.0
230
1.0
999
North Arrow Stem
  0
3DFACE
  8
1
 62
  3
 10
    99989.00000
 20
   100002.00000
 30
        0.10000
 11
    99989.00000
 21
   100002.00000
 31
        0.00000
 12
    99989.00000
 22
    99999.00000
 32
        0.00000
 13
    99989.00000
 23
    99999.00000
 33
        0.10000
999
North Arrow Head 1
  0
3DFACE
  8
1
 62
  3
 10
    99989.00000
 20
   100002.00000
 30
        0.10000
 11
    99989.00000
 21
   100002.00000
 31
        0.00000
 12
    99988.50000
 22
   100001.13398
 32
        0.00000
 13
    99988.50000
 23
   100001.13398
 33
        0.10000
999
North Arrow Head 2
  0
3DFACE
  8
1
 62
  3
 10
    99989.00000
 20
   100002.00000
 30
        0.10000
 11
    99989.00000
 21
   100002.00000
 31
        0.00000
 12
    99989.50000
 22
   100001.13398
 32
        0.00000
 13
    99989.50000
 23
   100001.13398
 33
        0.10000
999
North Arrow Side 1
  0
3DFACE
  8
1
 62
  3
 10
    99988.50000
 20
   100003.50000
 30
        0.10000
 11
    99988.50000
 21
   100003.50000
 31
        0.00000
 12
    99988.50000
 22
   100002.50000
 32
        0.00000
 13
    99988.50000
 23
   100002.50000
 33
        0.10000
999
North Arrow Side 2
  0
3DFACE
  8
1
 62
  3
 10
    99988.50000
 20
   100003.50000
 30
        0.10000
 11
    99988.50000
 21
   100003.50000
 31
        0.00000
 12
    99989.50000
 22
   100002.50000
 32
        0.00000
 13
    99989.50000
 23
   100002.50000
 33
        0.10000
999
North Arrow Side 3
  0
3DFACE
  8
1
 62
  3
 10
    99989.50000
 20
   100003.50000
 30
        0.10000
 11
    99989.50000
 21
   100003.50000
 31
        0.00000
 12
    99989.50000
 22
   100002.50000
 32
        0.00000
 13
    99989.50000
 23
   100002.50000
 33
        0.10000
999
Zone Names
999
Zone=1:PERIM
999
Zone=2:CORE
999
Building Shading:SHADER_0
  0
3DFACE
  8
Building Shading
 62
195
 10
   961555.06250
 20
  1946626.50000
 30
       88.96130
 11
   961555.06250
 21
  1946626.50000
 31
       19.96130
 12
   961551.62500
 22
  1946623.62500
 32
       19.96130
 13
   961551.62500
 23
  1946623.62500
 33
       88.96130
999
Building Shading:Mir-SHADER_0
  0
3DFACE
  8
Building Shading
 62
195
 10
   961551.62500
 20
  1946623.62500
 30
       88.96130
 11
   961551.62500
 21
  1946623.62500
 31
       19.96130
 12
   961555.06250
 22
  1946626.50000
 32
       19.96130
 13
   961555.06250
 23
  1946626.50000
 33
       88.96130
999
Building Shading:SHADER_1
  0
3DFACE
  8
Building Shading
 62
195
 10
   961482.37500
 20
  1946704.00000
 30
       62.17960
 11
   961482.37500
 21
  1946704.00000
 31
       25.17960
 12
   961502.43750
 22
  1946684.87500
 32
       25.17960
 13
   961502.43750
 23
  1946684.87500
 33
       62.17960
999
Building Shading:Mir-SHADER_1
  0
3DFACE
  8
Building Shading
 62
195
 10
   961502.43750
 20
  1946684.87500
 30
       62.17960
 11
   961502.43750
 21
  1946684.87500
 31
       25.17960
 12
   961482.37500
 22
  1946704.00000
 32
       25.17960
 13
   961482.37500
 23
  1946704.00000
 33
       62.17960
999
Building Shading:SHADER_2
  0
3DFACE
  8
Building Shading
 62
195
 10
   961453.31250
 20
  1946732.12500
 30
       65.19300
 11
   961453.31250
 21
  1946732.12500
 31
       28.19300
 12
   961473.18750
 22
  1946713.00000
 32
       28.19300
 13
   961473.18750
 23
  1946713.00000
 33
       65.19300
999
Building Shading:Mir-SHADER_2
  0
3DFACE
  8
Building Shading
 62
195
 10
   961473.18750
 20
  1946713.00000
 30
       65.19300
 11
   961473.18750
 21
  1946713.00000
 31
       28.19300
 12
   961453.31250
 22
  1946732.12500
 32
       28.19300
 13
   961453.31250
 23
  1946732.12500
 33
       65.19300
999
Building Shading:SHADER_3
  0
3DFACE
  8
Building Shading
 62
195
 10
   961355.06250
 20
  1946734.75000
 30
       68.17990
 11
   961355.06250
 21
  1946734.75000
 31
       52.17990
 12
   961376.62500
 22
  1946757.50000
 32
       52.17990
 13
   961376.62500
 23
  1946757.50000
 33
       68.17990
999
Building Shading:Mir-SHADER_3
  0
3DFACE
  8
Building Shading
 62
195
 10
   961376.62500
 20
  1946757.50000
 30
       68.17990
 11
   961376.62500
 21
  1946757.50000
 31
       52.17990
 12
   961355.06250
 22
  1946734.75000
 32
       52.17990
 13
   961355.06250
 23
  1946734.75000
 33
       68.17990
999
PERIM:PERIM:F0
  0
3DFACE
  8
PERIM
 62
 43
 10
   961424.91380
 20
  1946682.89310
 30
       40.22270
 11
   961424.91380
 21
  1946682.89310
 31
       37.11450
 12
   961422.60550
 22
  1946684.80930
 32
       37.11450
 13
   961422.60550
 23
  1946684.80930
 33
       40.22270
999
PERIM:PERIM:F0:W0
  0
3DFACE
  8
PERIM
 62
143
 10
   961424.83690
 20
  1946682.95700
 30
       39.29660
 11
   961424.83690
 21
  1946682.95700
 31
       37.96450
 12
   961422.68250
 22
  1946684.74540
 32
       37.96450
 13
   961422.68250
 23
  1946684.74540
 33
       39.29660
999
PERIM:PERIM:F1
  0
3DFACE
  8
PERIM
 62
 43
 10
   961420.82900
 20
  1946682.66920
 30
       40.22270
 11
   961420.82900
 21
  1946682.66920
 31
       37.11450
 12
   961423.13730
 22
  1946680.75300
 32
       37.11450
 13
   961423.13730
 23
  1946680.75300
 33
       40.22270
999
PERIM:PERIM:F2
  0
3DFACE
  8
PERIM
 62
 43
 10
   961422.60550
 20
  1946684.80930
 30
       40.22270
 11
   961422.60550
 21
  1946684.80930
 31
       37.11450
 12
   961420.82900
 22
  1946682.66920
 32
       37.11450
 13
   961420.82900
 23
  1946682.66920
 33
       40.22270
999
PERIM:PERIM:F3
  0
3DFACE
  8
PERIM
 62
 43
 10
   961423.13730
 20
  1946680.75300
 30
       40.22270
 11
   961423.13730
 21
  1946680.75300
 31
       37.11450
 12
   961424.91380
 22
  1946682.89310
 32
       37.11450
 13
   961424.91380
 23
  1946682.89310
 33
       40.22270
999
PERIM:PERIM:F4
  0
3DFACE
  8
PERIM
 62
  8
 10
   961424.91380
 20
  1946682.89310
 30
       37.11450
 11
   961423.27260
 21
  1946680.91600
 31
       37.11450
 12
   961420.96430
 22
  1946682.83220
 32
       37.11450
 13
   961422.60550
 23
  1946684.80930
 33
       37.11450
999
PERIM:PERIM:F5
  0
3DFACE
  8
PERIM
 62
  8
 10
   961423.27260
 20
  1946680.91600
 30
       37.11450
 11
   961423.13730
 21
  1946680.75300
 31
       37.11450
 12
   961420.82900
 22
  1946682.66920
 32
       37.11450
 13
   961420.96430
 23
  1946682.83220
 33
       37.11450
999
PERIM:PERIM:F6
  0
3DFACE
  8
PERIM
 62
 15
 10
   961424.91380
 20
  1946682.89310
 30
       40.22270
 11
   961422.60550
 21
  1946684.80930
 31
       40.22270
 12
   961420.96430
 22
  1946682.83220
 32
       40.22270
 13
   961423.27260
 23
  1946680.91600
 33
       40.22270
999
PERIM:PERIM:F7
  0
3DFACE
  8
PERIM
 62
 15
 10
   961423.27260
 20
  1946680.91600
 30
       40.22270
 11
   961420.96430
 21
  1946682.83220
 31
       40.22270
 12
   961420.82900
 22
  1946682.66920
 32
       40.22270
 13
   961423.13730
 23
  1946680.75300
 33
       40.22270
999
CORE:CORE:F0
  0
3DFACE
  8
CORE
 62
 43
 10
   961423.13730
 20
  1946680.75300
 30
       40.22270
 11
   961423.13730
 21
  1946680.75300
 31
       37.11450
 12
   961420.82900
 22
  1946682.66920
 32
       37.11450
 13
   961420.82900
 23
  1946682.66920
 33
       40.22270
999
CORE:CORE:F1
  0
3DFACE
  8
CORE
 62
 43
 10
   961419.76130
 20
  1946681.38300
 30
       40.22270
 11
   961419.76130
 21
  1946681.38300
 31
       37.11450
 12
   961422.06960
 22
  1946679.46690
 32
       37.11450
 13
   961422.06960
 23
  1946679.46690
 33
       40.22270
999
CORE:CORE:F2
  0
3DFACE
  8
CORE
 62
 43
 10
   961420.82900
 20
  1946682.66920
 30
       40.22270
 11
   961420.82900
 21
  1946682.66920
 31
       37.11450
 12
   961419.76130
 22
  1946681.38300
 32
       37.11450
 13
   961419.76130
 23
  1946681.38300
 33
       40.22270
999
CORE:CORE:F3
  0
3DFACE
  8
CORE
 62
 43
 10
   961422.06960
 20
  1946679.46690
 30
       40.22270
 11
   961422.06960
 21
  1946679.46690
 31
       37.11450
 12
   961423.13730
 22
  1946680.75300
 32
       37.11450
 13
   961423.13730
 23
  1946680.75300
 33
       40.22270
999
CORE:CORE:F4
  0
3DFACE
  8
CORE
 62
  8
 10
   961423.13730
 20
  1946680.75300
 30
       37.11450
 11
   961422.15090
 21
  1946679.56480
 31
       37.11450
 12
   961419.84260
 22
  1946681.48100
 32
       37.11450
 13
   961420.82900
 23
  1946682.66920
 33
       37.11450
999
CORE:CORE:F5
  0
3DFACE
  8
CORE
 62
  8
 10
   961422.15090
 20
  1946679.56480
 30
       37.11450
 11
   961422.06960
 21
  1946679.46690
 31
       37.11450
 12
   961419.76130
 22
  1946681.38300
 32
       37.11450
 13
   961419.84260
 23
  1946681.48100
 33
       37.11450
999
CORE:CORE:F6
  0
3DFACE
  8
CORE
 62
 15
 10
   961423.13730
 20
  1946680.75300
 30
       40.22270
 11
   961420.82900
 21
  1946682.66920
 31
       40.22270
 12
   961419.84260
 22
  1946681.48100
 32
       40.22270
 13
   961422.15090
 23
  1946679.56480
 33
       40.22270
999
CORE:CORE:F7
  0
3DFACE
  8
CORE
 62
 15
 10
   961422.15090
 20
  1946679.56480
 30
       40.22270
 11
   961419.84260
 21
  1946681.48100
 31
       40.22270
 12
   961419.76130
 22
  1946681.38300
 32
       40.22270
 13
   961422.06960
 23
  1946679.46690
 33
       40.22270
  0
ENDSEC
  0
EOF
