  0
SECTION
  2
ENTITIES
999
DXF created from EnergyPlus
999
Program Version,EnergyPlus, Version 8.4.0-09f5359d8a, YMD=2023.08.02 14:39
999
Polygon Action,TRIANGULATE3DFACE
999
Color Scheme,Default
999
Text - True North
  0
TEXT
  8
1
  6
Continuous
 62
  3
 10
    99988.00000
 20
   100002.00000
 30
        0.10000
 40
 .25
  1
True North
 41
 0.0
  7
MONOTXT
210
0.0
220
0.0
230
1.0
999
Text - Building Title
  0
TEXT
  8
1
  6
Continuous
 62
  3
 10
    99985.00000
 20
    99998.00000
 30
        0.10000
 40
 .4
  1
Building - Building
 41
 0.0
  7
MONOTXT
210
0.0
220
0.0
230
1.0
999
North Arrow Stem
  0
3DFACE
  8
1
 62
  3
 10
    99989.00000
 20
   100002.00000
 30
        0.10000
 11
    99989.00000
 21
   100002.00000
 31
        0.00000
 12
    99989.00000
 22
    99999.00000
 32
        0.00000
 13
    99989.00000
 23
    99999.00000
 33
        0.10000
999
North Arrow Head 1
  0
3DFACE
  8
1
 62
  3
 10
    99989.00000
 20
   100002.00000
 30
        0.10000
 11
    99989.00000
 21
   100002.00000
 31
        0.00000
 12
    99988.50000
 22
   100001.13398
 32
        0.00000
 13
    99988.50000
 23
   100001.13398
 33
        0.10000
999
North Arrow Head 2
  0
3DFACE
  8
1
 62
  3
 10
    99989.00000
 20
   100002.00000
 30
        0.10000
 11
    99989.00000
 21
   100002.00000
 31
        0.00000
 12
    99989.50000
 22
   100001.13398
 32
        0.00000
 13
    99989.50000
 23
   100001.13398
 33
        0.10000
999
North Arrow Side 1
  0
3DFACE
  8
1
 62
  3
 10
    99988.50000
 20
   100003.50000
 30
        0.10000
 11
    99988.50000
 21
   100003.50000
 31
        0.00000
 12
    99988.50000
 22
   100002.50000
 32
        0.00000
 13
    99988.50000
 23
   100002.50000
 33
        0.10000
999
North Arrow Side 2
  0
3DFACE
  8
1
 62
  3
 10
    99988.50000
 20
   100003.50000
 30
        0.10000
 11
    99988.50000
 21
   100003.50000
 31
        0.00000
 12
    99989.50000
 22
   100002.50000
 32
        0.00000
 13
    99989.50000
 23
   100002.50000
 33
        0.10000
999
North Arrow Side 3
  0
3DFACE
  8
1
 62
  3
 10
    99989.50000
 20
   100003.50000
 30
        0.10000
 11
    99989.50000
 21
   100003.50000
 31
        0.00000
 12
    99989.50000
 22
   100002.50000
 32
        0.00000
 13
    99989.50000
 23
   100002.50000
 33
        0.10000
999
Zone Names
999
Zone=1:PERIM
999
Zone=2:CORE
999
PERIM:PERIM:F0
  0
3DFACE
  8
PERIM
 62
 43
 10
   960219.80580
 20
  1946201.17250
 30
       67.36120
 11
   960219.80580
 21
  1946201.17250
 31
       64.25300
 12
   960216.98990
 22
  1946200.13780
 32
       64.25300
 13
   960216.98990
 23
  1946200.13780
 33
       67.36120
999
PERIM:PERIM:F0:W0
  0
3DFACE
  8
PERIM
 62
143
 10
   960219.71200
 20
  1946201.13800
 30
       66.43510
 11
   960219.71200
 21
  1946201.13800
 31
       65.10300
 12
   960217.08380
 22
  1946200.17230
 32
       65.10300
 13
   960217.08380
 23
  1946200.17230
 33
       66.43510
999
PERIM:PERIM:F1
  0
3DFACE
  8
PERIM
 62
 43
 10
   960217.94920
 20
  1946197.52710
 30
       67.36120
 11
   960217.94920
 21
  1946197.52710
 31
       64.25300
 12
   960220.76510
 22
  1946198.56180
 32
       64.25300
 13
   960220.76510
 23
  1946198.56180
 33
       67.36120
999
PERIM:PERIM:F2
  0
3DFACE
  8
PERIM
 62
 43
 10
   960216.98990
 20
  1946200.13780
 30
       67.36120
 11
   960216.98990
 21
  1946200.13780
 31
       64.25300
 12
   960217.94920
 22
  1946197.52710
 32
       64.25300
 13
   960217.94920
 23
  1946197.52710
 33
       67.36120
999
PERIM:PERIM:F3
  0
3DFACE
  8
PERIM
 62
 43
 10
   960220.76510
 20
  1946198.56180
 30
       67.36120
 11
   960220.76510
 21
  1946198.56180
 31
       64.25300
 12
   960219.80580
 22
  1946201.17250
 32
       64.25300
 13
   960219.80580
 23
  1946201.17250
 33
       67.36120
999
PERIM:PERIM:F4
  0
3DFACE
  8
PERIM
 62
  8
 10
   960219.80580
 20
  1946201.17250
 30
       64.25300
 11
   960220.69210
 21
  1946198.76060
 31
       64.25300
 12
   960217.87610
 22
  1946197.72590
 32
       64.25300
 13
   960216.98990
 23
  1946200.13780
 33
       64.25300
999
PERIM:PERIM:F5
  0
3DFACE
  8
PERIM
 62
  8
 10
   960220.69210
 20
  1946198.76060
 30
       64.25300
 11
   960220.76510
 21
  1946198.56180
 31
       64.25300
 12
   960217.94920
 22
  1946197.52710
 32
       64.25300
 13
   960217.87610
 23
  1946197.72590
 33
       64.25300
999
PERIM:PERIM:F6
  0
3DFACE
  8
PERIM
 62
 15
 10
   960219.80580
 20
  1946201.17250
 30
       67.36120
 11
   960216.98990
 21
  1946200.13780
 31
       67.36120
 12
   960217.87610
 22
  1946197.72590
 32
       67.36120
 13
   960220.69210
 23
  1946198.76060
 33
       67.36120
999
PERIM:PERIM:F7
  0
3DFACE
  8
PERIM
 62
 15
 10
   960220.69210
 20
  1946198.76060
 30
       67.36120
 11
   960217.87610
 21
  1946197.72590
 31
       67.36120
 12
   960217.94920
 22
  1946197.52710
 32
       67.36120
 13
   960220.76510
 23
  1946198.56180
 33
       67.36120
999
CORE:CORE:F0
  0
3DFACE
  8
CORE
 62
 43
 10
   960220.76510
 20
  1946198.56180
 30
       67.36120
 11
   960220.76510
 21
  1946198.56180
 31
       64.25300
 12
   960217.94920
 22
  1946197.52710
 32
       64.25300
 13
   960217.94920
 23
  1946197.52710
 33
       67.36120
999
CORE:CORE:F1
  0
3DFACE
  8
CORE
 62
 43
 10
   960218.52570
 20
  1946195.95810
 30
       67.36120
 11
   960218.52570
 21
  1946195.95810
 31
       64.25300
 12
   960221.34160
 22
  1946196.99270
 32
       64.25300
 13
   960221.34160
 23
  1946196.99270
 33
       67.36120
999
CORE:CORE:F2
  0
3DFACE
  8
CORE
 62
 43
 10
   960217.94920
 20
  1946197.52710
 30
       67.36120
 11
   960217.94920
 21
  1946197.52710
 31
       64.25300
 12
   960218.52570
 22
  1946195.95810
 32
       64.25300
 13
   960218.52570
 23
  1946195.95810
 33
       67.36120
999
CORE:CORE:F3
  0
3DFACE
  8
CORE
 62
 43
 10
   960221.34160
 20
  1946196.99270
 30
       67.36120
 11
   960221.34160
 21
  1946196.99270
 31
       64.25300
 12
   960220.76510
 22
  1946198.56180
 32
       64.25300
 13
   960220.76510
 23
  1946198.56180
 33
       67.36120
999
CORE:CORE:F4
  0
3DFACE
  8
CORE
 62
  8
 10
   960220.76510
 20
  1946198.56180
 30
       64.25300
 11
   960221.29770
 21
  1946197.11220
 31
       64.25300
 12
   960218.48180
 22
  1946196.07750
 32
       64.25300
 13
   960217.94920
 23
  1946197.52710
 33
       64.25300
999
CORE:CORE:F5
  0
3DFACE
  8
CORE
 62
  8
 10
   960221.29770
 20
  1946197.11220
 30
       64.25300
 11
   960221.34160
 21
  1946196.99270
 31
       64.25300
 12
   960218.52570
 22
  1946195.95810
 32
       64.25300
 13
   960218.48180
 23
  1946196.07750
 33
       64.25300
999
CORE:CORE:F6
  0
3DFACE
  8
CORE
 62
 15
 10
   960220.76510
 20
  1946198.56180
 30
       67.36120
 11
   960217.94920
 21
  1946197.52710
 31
       67.36120
 12
   960218.48180
 22
  1946196.07750
 32
       67.36120
 13
   960221.29770
 23
  1946197.11220
 33
       67.36120
999
CORE:CORE:F7
  0
3DFACE
  8
CORE
 62
 15
 10
   960221.29770
 20
  1946197.11220
 30
       67.36120
 11
   960218.48180
 21
  1946196.07750
 31
       67.36120
 12
   960218.52570
 22
  1946195.95810
 32
       67.36120
 13
   960221.34160
 23
  1946196.99270
 33
       67.36120
  0
ENDSEC
  0
EOF
