  0
SECTION
  2
ENTITIES
999
DXF created from EnergyPlus
999
Program Version,EnergyPlus, Version 8.4.0-09f5359d8a, YMD=2023.08.02 14:39
999
Polygon Action,TRIANGULATE3DFACE
999
Color Scheme,Default
999
Text - True North
  0
TEXT
  8
1
  6
Continuous
 62
  3
 10
    99988.00000
 20
   100002.00000
 30
        0.10000
 40
 .25
  1
True North
 41
 0.0
  7
MONOTXT
210
0.0
220
0.0
230
1.0
999
Text - Building Title
  0
TEXT
  8
1
  6
Continuous
 62
  3
 10
    99985.00000
 20
    99998.00000
 30
        0.10000
 40
 .4
  1
Building - Building
 41
 0.0
  7
MONOTXT
210
0.0
220
0.0
230
1.0
999
North Arrow Stem
  0
3DFACE
  8
1
 62
  3
 10
    99989.00000
 20
   100002.00000
 30
        0.10000
 11
    99989.00000
 21
   100002.00000
 31
        0.00000
 12
    99989.00000
 22
    99999.00000
 32
        0.00000
 13
    99989.00000
 23
    99999.00000
 33
        0.10000
999
North Arrow Head 1
  0
3DFACE
  8
1
 62
  3
 10
    99989.00000
 20
   100002.00000
 30
        0.10000
 11
    99989.00000
 21
   100002.00000
 31
        0.00000
 12
    99988.50000
 22
   100001.13398
 32
        0.00000
 13
    99988.50000
 23
   100001.13398
 33
        0.10000
999
North Arrow Head 2
  0
3DFACE
  8
1
 62
  3
 10
    99989.00000
 20
   100002.00000
 30
        0.10000
 11
    99989.00000
 21
   100002.00000
 31
        0.00000
 12
    99989.50000
 22
   100001.13398
 32
        0.00000
 13
    99989.50000
 23
   100001.13398
 33
        0.10000
999
North Arrow Side 1
  0
3DFACE
  8
1
 62
  3
 10
    99988.50000
 20
   100003.50000
 30
        0.10000
 11
    99988.50000
 21
   100003.50000
 31
        0.00000
 12
    99988.50000
 22
   100002.50000
 32
        0.00000
 13
    99988.50000
 23
   100002.50000
 33
        0.10000
999
North Arrow Side 2
  0
3DFACE
  8
1
 62
  3
 10
    99988.50000
 20
   100003.50000
 30
        0.10000
 11
    99988.50000
 21
   100003.50000
 31
        0.00000
 12
    99989.50000
 22
   100002.50000
 32
        0.00000
 13
    99989.50000
 23
   100002.50000
 33
        0.10000
999
North Arrow Side 3
  0
3DFACE
  8
1
 62
  3
 10
    99989.50000
 20
   100003.50000
 30
        0.10000
 11
    99989.50000
 21
   100003.50000
 31
        0.00000
 12
    99989.50000
 22
   100002.50000
 32
        0.00000
 13
    99989.50000
 23
   100002.50000
 33
        0.10000
999
Zone Names
999
Zone=1:PERIM
999
Zone=2:CORE
999
Building Shading:SHADER_0
  0
3DFACE
  8
Building Shading
 62
195
 10
   959769.31250
 20
  1946578.87500
 30
       96.98660
 11
   959769.31250
 21
  1946578.87500
 31
       37.98660
 12
   959769.56250
 22
  1946577.50000
 32
       37.98660
 13
   959769.56250
 23
  1946577.50000
 33
       96.98660
999
Building Shading:Mir-SHADER_0
  0
3DFACE
  8
Building Shading
 62
195
 10
   959769.56250
 20
  1946577.50000
 30
       96.98660
 11
   959769.56250
 21
  1946577.50000
 31
       37.98660
 12
   959769.31250
 22
  1946578.87500
 32
       37.98660
 13
   959769.31250
 23
  1946578.87500
 33
       96.98660
999
PERIM:PERIM:F0
  0
3DFACE
  8
PERIM
 62
 43
 10
   959767.67200
 20
  1946577.16910
 30
       84.56850
 11
   959767.67200
 21
  1946577.16910
 31
       81.46030
 12
   959764.73220
 22
  1946576.57140
 32
       81.46030
 13
   959764.73220
 23
  1946576.57140
 33
       84.56850
999
PERIM:PERIM:F0:W0
  0
3DFACE
  8
PERIM
 62
143
 10
   959767.57400
 20
  1946577.14920
 30
       83.64240
 11
   959767.57400
 21
  1946577.14920
 31
       82.31030
 12
   959764.83020
 22
  1946576.59130
 32
       82.31030
 13
   959764.83020
 23
  1946576.59130
 33
       83.64240
999
PERIM:PERIM:F1
  0
3DFACE
  8
PERIM
 62
 43
 10
   959765.28630
 20
  1946573.84580
 30
       84.56850
 11
   959765.28630
 21
  1946573.84580
 31
       81.46030
 12
   959768.22620
 22
  1946574.44350
 32
       81.46030
 13
   959768.22620
 23
  1946574.44350
 33
       84.56850
999
PERIM:PERIM:F2
  0
3DFACE
  8
PERIM
 62
 43
 10
   959764.73220
 20
  1946576.57140
 30
       84.56850
 11
   959764.73220
 21
  1946576.57140
 31
       81.46030
 12
   959765.28630
 22
  1946573.84580
 32
       81.46030
 13
   959765.28630
 23
  1946573.84580
 33
       84.56850
999
PERIM:PERIM:F3
  0
3DFACE
  8
PERIM
 62
 43
 10
   959768.22620
 20
  1946574.44350
 30
       84.56850
 11
   959768.22620
 21
  1946574.44350
 31
       81.46030
 12
   959767.67200
 22
  1946577.16910
 32
       81.46030
 13
   959767.67200
 23
  1946577.16910
 33
       84.56850
999
PERIM:PERIM:F4
  0
3DFACE
  8
PERIM
 62
  8
 10
   959767.67200
 20
  1946577.16910
 30
       81.46030
 11
   959768.18400
 21
  1946574.65110
 31
       81.46030
 12
   959765.24410
 22
  1946574.05340
 32
       81.46030
 13
   959764.73220
 23
  1946576.57140
 33
       81.46030
999
PERIM:PERIM:F5
  0
3DFACE
  8
PERIM
 62
  8
 10
   959768.18400
 20
  1946574.65110
 30
       81.46030
 11
   959768.22620
 21
  1946574.44350
 31
       81.46030
 12
   959765.28630
 22
  1946573.84580
 32
       81.46030
 13
   959765.24410
 23
  1946574.05340
 33
       81.46030
999
PERIM:PERIM:F6
  0
3DFACE
  8
PERIM
 62
 15
 10
   959767.67200
 20
  1946577.16910
 30
       84.56850
 11
   959764.73220
 21
  1946576.57140
 31
       84.56850
 12
   959765.24410
 22
  1946574.05340
 32
       84.56850
 13
   959768.18400
 23
  1946574.65110
 33
       84.56850
999
PERIM:PERIM:F7
  0
3DFACE
  8
PERIM
 62
 15
 10
   959768.18400
 20
  1946574.65110
 30
       84.56850
 11
   959765.24410
 21
  1946574.05340
 31
       84.56850
 12
   959765.28630
 22
  1946573.84580
 32
       84.56850
 13
   959768.22620
 23
  1946574.44350
 33
       84.56850
999
CORE:CORE:F0
  0
3DFACE
  8
CORE
 62
 43
 10
   959768.22620
 20
  1946574.44350
 30
       84.56850
 11
   959768.22620
 21
  1946574.44350
 31
       81.46030
 12
   959765.28630
 22
  1946573.84580
 32
       81.46030
 13
   959765.28630
 23
  1946573.84580
 33
       84.56850
999
CORE:CORE:F1
  0
3DFACE
  8
CORE
 62
 43
 10
   959765.61940
 20
  1946572.20770
 30
       84.56850
 11
   959765.61940
 21
  1946572.20770
 31
       81.46030
 12
   959768.55920
 22
  1946572.80540
 32
       81.46030
 13
   959768.55920
 23
  1946572.80540
 33
       84.56850
999
CORE:CORE:F2
  0
3DFACE
  8
CORE
 62
 43
 10
   959765.28630
 20
  1946573.84580
 30
       84.56850
 11
   959765.28630
 21
  1946573.84580
 31
       81.46030
 12
   959765.61940
 22
  1946572.20770
 32
       81.46030
 13
   959765.61940
 23
  1946572.20770
 33
       84.56850
999
CORE:CORE:F3
  0
3DFACE
  8
CORE
 62
 43
 10
   959768.55920
 20
  1946572.80540
 30
       84.56850
 11
   959768.55920
 21
  1946572.80540
 31
       81.46030
 12
   959768.22620
 22
  1946574.44350
 32
       81.46030
 13
   959768.22620
 23
  1946574.44350
 33
       84.56850
999
CORE:CORE:F4
  0
3DFACE
  8
CORE
 62
  8
 10
   959768.22620
 20
  1946574.44350
 30
       81.46030
 11
   959768.53390
 21
  1946572.93020
 31
       81.46030
 12
   959765.59400
 22
  1946572.33250
 32
       81.46030
 13
   959765.28630
 23
  1946573.84580
 33
       81.46030
999
CORE:CORE:F5
  0
3DFACE
  8
CORE
 62
  8
 10
   959768.53390
 20
  1946572.93020
 30
       81.46030
 11
   959768.55920
 21
  1946572.80540
 31
       81.46030
 12
   959765.61940
 22
  1946572.20770
 32
       81.46030
 13
   959765.59400
 23
  1946572.33250
 33
       81.46030
999
CORE:CORE:F6
  0
3DFACE
  8
CORE
 62
 15
 10
   959768.22620
 20
  1946574.44350
 30
       84.56850
 11
   959765.28630
 21
  1946573.84580
 31
       84.56850
 12
   959765.59400
 22
  1946572.33250
 32
       84.56850
 13
   959768.53390
 23
  1946572.93020
 33
       84.56850
999
CORE:CORE:F7
  0
3DFACE
  8
CORE
 62
 15
 10
   959768.53390
 20
  1946572.93020
 30
       84.56850
 11
   959765.59400
 21
  1946572.33250
 31
       84.56850
 12
   959765.61940
 22
  1946572.20770
 32
       84.56850
 13
   959768.55920
 23
  1946572.80540
 33
       84.56850
  0
ENDSEC
  0
EOF
