  0
SECTION
  2
ENTITIES
999
DXF created from EnergyPlus
999
Program Version,EnergyPlus, Version 8.4.0-09f5359d8a, YMD=2023.08.02 14:39
999
Polygon Action,TRIANGULATE3DFACE
999
Color Scheme,Default
999
Text - True North
  0
TEXT
  8
1
  6
Continuous
 62
  3
 10
    99988.00000
 20
   100002.00000
 30
        0.10000
 40
 .25
  1
True North
 41
 0.0
  7
MONOTXT
210
0.0
220
0.0
230
1.0
999
Text - Building Title
  0
TEXT
  8
1
  6
Continuous
 62
  3
 10
    99985.00000
 20
    99998.00000
 30
        0.10000
 40
 .4
  1
Building - Building
 41
 0.0
  7
MONOTXT
210
0.0
220
0.0
230
1.0
999
North Arrow Stem
  0
3DFACE
  8
1
 62
  3
 10
    99989.00000
 20
   100002.00000
 30
        0.10000
 11
    99989.00000
 21
   100002.00000
 31
        0.00000
 12
    99989.00000
 22
    99999.00000
 32
        0.00000
 13
    99989.00000
 23
    99999.00000
 33
        0.10000
999
North Arrow Head 1
  0
3DFACE
  8
1
 62
  3
 10
    99989.00000
 20
   100002.00000
 30
        0.10000
 11
    99989.00000
 21
   100002.00000
 31
        0.00000
 12
    99988.50000
 22
   100001.13398
 32
        0.00000
 13
    99988.50000
 23
   100001.13398
 33
        0.10000
999
North Arrow Head 2
  0
3DFACE
  8
1
 62
  3
 10
    99989.00000
 20
   100002.00000
 30
        0.10000
 11
    99989.00000
 21
   100002.00000
 31
        0.00000
 12
    99989.50000
 22
   100001.13398
 32
        0.00000
 13
    99989.50000
 23
   100001.13398
 33
        0.10000
999
North Arrow Side 1
  0
3DFACE
  8
1
 62
  3
 10
    99988.50000
 20
   100003.50000
 30
        0.10000
 11
    99988.50000
 21
   100003.50000
 31
        0.00000
 12
    99988.50000
 22
   100002.50000
 32
        0.00000
 13
    99988.50000
 23
   100002.50000
 33
        0.10000
999
North Arrow Side 2
  0
3DFACE
  8
1
 62
  3
 10
    99988.50000
 20
   100003.50000
 30
        0.10000
 11
    99988.50000
 21
   100003.50000
 31
        0.00000
 12
    99989.50000
 22
   100002.50000
 32
        0.00000
 13
    99989.50000
 23
   100002.50000
 33
        0.10000
999
North Arrow Side 3
  0
3DFACE
  8
1
 62
  3
 10
    99989.50000
 20
   100003.50000
 30
        0.10000
 11
    99989.50000
 21
   100003.50000
 31
        0.00000
 12
    99989.50000
 22
   100002.50000
 32
        0.00000
 13
    99989.50000
 23
   100002.50000
 33
        0.10000
999
Zone Names
999
Zone=1:PERIM
999
Zone=2:CORE
999
Building Shading:SHADER_0
  0
3DFACE
  8
Building Shading
 62
195
 10
   959826.75000
 20
  1946562.87500
 30
       87.82830
 11
   959826.75000
 21
  1946562.87500
 31
       35.82830
 12
   959829.43750
 22
  1946551.12500
 32
       35.82830
 13
   959829.43750
 23
  1946551.12500
 33
       87.82830
999
Building Shading:Mir-SHADER_0
  0
3DFACE
  8
Building Shading
 62
195
 10
   959829.43750
 20
  1946551.12500
 30
       87.82830
 11
   959829.43750
 21
  1946551.12500
 31
       35.82830
 12
   959826.75000
 22
  1946562.87500
 32
       35.82830
 13
   959826.75000
 23
  1946562.87500
 33
       87.82830
999
Building Shading:SHADER_1
  0
3DFACE
  8
Building Shading
 62
195
 10
   959822.75000
 20
  1946589.87500
 30
       87.82830
 11
   959822.75000
 21
  1946589.87500
 31
       35.82830
 12
   959827.62500
 22
  1946568.25000
 32
       35.82830
 13
   959827.62500
 23
  1946568.25000
 33
       87.82830
999
Building Shading:Mir-SHADER_1
  0
3DFACE
  8
Building Shading
 62
195
 10
   959827.62500
 20
  1946568.25000
 30
       87.82830
 11
   959827.62500
 21
  1946568.25000
 31
       35.82830
 12
   959822.75000
 22
  1946589.87500
 32
       35.82830
 13
   959822.75000
 23
  1946589.87500
 33
       87.82830
999
PERIM:PERIM:F0
  0
3DFACE
  8
PERIM
 62
 43
 10
   959791.15650
 20
  1946578.95470
 30
       75.25270
 11
   959791.15650
 21
  1946578.95470
 31
       72.14450
 12
   959790.49900
 22
  1946581.88170
 32
       72.14450
 13
   959790.49900
 23
  1946581.88170
 33
       75.25270
999
PERIM:PERIM:F0:W0
  0
3DFACE
  8
PERIM
 62
143
 10
   959791.13460
 20
  1946579.05220
 30
       74.32660
 11
   959791.13460
 21
  1946579.05220
 31
       72.99450
 12
   959790.52100
 22
  1946581.78420
 32
       72.99450
 13
   959790.52100
 23
  1946581.78420
 33
       74.32660
999
PERIM:PERIM:F1
  0
3DFACE
  8
PERIM
 62
 43
 10
   959787.78530
 20
  1946581.27220
 30
       75.25270
 11
   959787.78530
 21
  1946581.27220
 31
       72.14450
 12
   959788.44270
 22
  1946578.34510
 32
       72.14450
 13
   959788.44270
 23
  1946578.34510
 33
       75.25270
999
PERIM:PERIM:F2
  0
3DFACE
  8
PERIM
 62
 43
 10
   959790.49900
 20
  1946581.88170
 30
       75.25270
 11
   959790.49900
 21
  1946581.88170
 31
       72.14450
 12
   959787.78530
 22
  1946581.27220
 32
       72.14450
 13
   959787.78530
 23
  1946581.27220
 33
       75.25270
999
PERIM:PERIM:F3
  0
3DFACE
  8
PERIM
 62
 43
 10
   959788.44270
 20
  1946578.34510
 30
       75.25270
 11
   959788.44270
 21
  1946578.34510
 31
       72.14450
 12
   959791.15650
 22
  1946578.95470
 32
       72.14450
 13
   959791.15650
 23
  1946578.95470
 33
       75.25270
999
PERIM:PERIM:F4
  0
3DFACE
  8
PERIM
 62
  8
 10
   959791.15650
 20
  1946578.95470
 30
       72.14450
 11
   959788.64940
 21
  1946578.39150
 31
       72.14450
 12
   959787.99190
 22
  1946581.31860
 32
       72.14450
 13
   959790.49900
 23
  1946581.88170
 33
       72.14450
999
PERIM:PERIM:F5
  0
3DFACE
  8
PERIM
 62
  8
 10
   959788.64940
 20
  1946578.39150
 30
       72.14450
 11
   959788.44270
 21
  1946578.34510
 31
       72.14450
 12
   959787.78530
 22
  1946581.27220
 32
       72.14450
 13
   959787.99190
 23
  1946581.31860
 33
       72.14450
999
PERIM:PERIM:F6
  0
3DFACE
  8
PERIM
 62
 15
 10
   959791.15650
 20
  1946578.95470
 30
       75.25270
 11
   959790.49900
 21
  1946581.88170
 31
       75.25270
 12
   959787.99190
 22
  1946581.31860
 32
       75.25270
 13
   959788.64940
 23
  1946578.39150
 33
       75.25270
999
PERIM:PERIM:F7
  0
3DFACE
  8
PERIM
 62
 15
 10
   959788.64940
 20
  1946578.39150
 30
       75.25270
 11
   959787.99190
 21
  1946581.31860
 31
       75.25270
 12
   959787.78530
 22
  1946581.27220
 32
       75.25270
 13
   959788.44270
 23
  1946578.34510
 33
       75.25270
999
CORE:CORE:F0
  0
3DFACE
  8
CORE
 62
 43
 10
   959788.44270
 20
  1946578.34510
 30
       75.25270
 11
   959788.44270
 21
  1946578.34510
 31
       72.14450
 12
   959787.78530
 22
  1946581.27220
 32
       72.14450
 13
   959787.78530
 23
  1946581.27220
 33
       75.25270
999
CORE:CORE:F1
  0
3DFACE
  8
CORE
 62
 43
 10
   959786.15430
 20
  1946580.90590
 30
       75.25270
 11
   959786.15430
 21
  1946580.90590
 31
       72.14450
 12
   959786.81180
 22
  1946577.97880
 32
       72.14450
 13
   959786.81180
 23
  1946577.97880
 33
       75.25270
999
CORE:CORE:F2
  0
3DFACE
  8
CORE
 62
 43
 10
   959787.78530
 20
  1946581.27220
 30
       75.25270
 11
   959787.78530
 21
  1946581.27220
 31
       72.14450
 12
   959786.15430
 22
  1946580.90590
 32
       72.14450
 13
   959786.15430
 23
  1946580.90590
 33
       75.25270
999
CORE:CORE:F3
  0
3DFACE
  8
CORE
 62
 43
 10
   959786.81180
 20
  1946577.97880
 30
       75.25270
 11
   959786.81180
 21
  1946577.97880
 31
       72.14450
 12
   959788.44270
 22
  1946578.34510
 32
       72.14450
 13
   959788.44270
 23
  1946578.34510
 33
       75.25270
999
CORE:CORE:F4
  0
3DFACE
  8
CORE
 62
  8
 10
   959788.44270
 20
  1946578.34510
 30
       72.14450
 11
   959786.93600
 21
  1946578.00670
 31
       72.14450
 12
   959786.27850
 22
  1946580.93380
 32
       72.14450
 13
   959787.78530
 23
  1946581.27220
 33
       72.14450
999
CORE:CORE:F5
  0
3DFACE
  8
CORE
 62
  8
 10
   959786.93600
 20
  1946578.00670
 30
       72.14450
 11
   959786.81180
 21
  1946577.97880
 31
       72.14450
 12
   959786.15430
 22
  1946580.90590
 32
       72.14450
 13
   959786.27850
 23
  1946580.93380
 33
       72.14450
999
CORE:CORE:F6
  0
3DFACE
  8
CORE
 62
 15
 10
   959788.44270
 20
  1946578.34510
 30
       75.25270
 11
   959787.78530
 21
  1946581.27220
 31
       75.25270
 12
   959786.27850
 22
  1946580.93380
 32
       75.25270
 13
   959786.93600
 23
  1946578.00670
 33
       75.25270
999
CORE:CORE:F7
  0
3DFACE
  8
CORE
 62
 15
 10
   959786.93600
 20
  1946578.00670
 30
       75.25270
 11
   959786.27850
 21
  1946580.93380
 31
       75.25270
 12
   959786.15430
 22
  1946580.90590
 32
       75.25270
 13
   959786.81180
 23
  1946577.97880
 33
       75.25270
  0
ENDSEC
  0
EOF
