  0
SECTION
  2
ENTITIES
999
DXF created from EnergyPlus
999
Program Version,EnergyPlus, Version 8.4.0-09f5359d8a, YMD=2023.08.02 14:39
999
Polygon Action,TRIANGULATE3DFACE
999
Color Scheme,Default
999
Text - True North
  0
TEXT
  8
1
  6
Continuous
 62
  3
 10
    99988.00000
 20
   100002.00000
 30
        0.10000
 40
 .25
  1
True North
 41
 0.0
  7
MONOTXT
210
0.0
220
0.0
230
1.0
999
Text - Building Title
  0
TEXT
  8
1
  6
Continuous
 62
  3
 10
    99985.00000
 20
    99998.00000
 30
        0.10000
 40
 .4
  1
Building - Building
 41
 0.0
  7
MONOTXT
210
0.0
220
0.0
230
1.0
999
North Arrow Stem
  0
3DFACE
  8
1
 62
  3
 10
    99989.00000
 20
   100002.00000
 30
        0.10000
 11
    99989.00000
 21
   100002.00000
 31
        0.00000
 12
    99989.00000
 22
    99999.00000
 32
        0.00000
 13
    99989.00000
 23
    99999.00000
 33
        0.10000
999
North Arrow Head 1
  0
3DFACE
  8
1
 62
  3
 10
    99989.00000
 20
   100002.00000
 30
        0.10000
 11
    99989.00000
 21
   100002.00000
 31
        0.00000
 12
    99988.50000
 22
   100001.13398
 32
        0.00000
 13
    99988.50000
 23
   100001.13398
 33
        0.10000
999
North Arrow Head 2
  0
3DFACE
  8
1
 62
  3
 10
    99989.00000
 20
   100002.00000
 30
        0.10000
 11
    99989.00000
 21
   100002.00000
 31
        0.00000
 12
    99989.50000
 22
   100001.13398
 32
        0.00000
 13
    99989.50000
 23
   100001.13398
 33
        0.10000
999
North Arrow Side 1
  0
3DFACE
  8
1
 62
  3
 10
    99988.50000
 20
   100003.50000
 30
        0.10000
 11
    99988.50000
 21
   100003.50000
 31
        0.00000
 12
    99988.50000
 22
   100002.50000
 32
        0.00000
 13
    99988.50000
 23
   100002.50000
 33
        0.10000
999
North Arrow Side 2
  0
3DFACE
  8
1
 62
  3
 10
    99988.50000
 20
   100003.50000
 30
        0.10000
 11
    99988.50000
 21
   100003.50000
 31
        0.00000
 12
    99989.50000
 22
   100002.50000
 32
        0.00000
 13
    99989.50000
 23
   100002.50000
 33
        0.10000
999
North Arrow Side 3
  0
3DFACE
  8
1
 62
  3
 10
    99989.50000
 20
   100003.50000
 30
        0.10000
 11
    99989.50000
 21
   100003.50000
 31
        0.00000
 12
    99989.50000
 22
   100002.50000
 32
        0.00000
 13
    99989.50000
 23
   100002.50000
 33
        0.10000
999
Zone Names
999
Zone=1:PERIM
999
Zone=2:CORE
999
Building Shading:SHADER_0
  0
3DFACE
  8
Building Shading
 62
195
 10
   960227.68750
 20
  1946146.62500
 30
       79.25300
 11
   960227.68750
 21
  1946146.62500
 31
       40.25300
 12
   960227.06250
 22
  1946148.37500
 32
       40.25300
 13
   960227.06250
 23
  1946148.37500
 33
       79.25300
999
Building Shading:Mir-SHADER_0
  0
3DFACE
  8
Building Shading
 62
195
 10
   960227.06250
 20
  1946148.37500
 30
       79.25300
 11
   960227.06250
 21
  1946148.37500
 31
       40.25300
 12
   960227.68750
 22
  1946146.62500
 32
       40.25300
 13
   960227.68750
 23
  1946146.62500
 33
       79.25300
999
Building Shading:SHADER_1
  0
3DFACE
  8
Building Shading
 62
195
 10
   960287.81250
 20
  1946128.62500
 30
       97.32670
 11
   960287.81250
 21
  1946128.62500
 31
       39.32670
 12
   960292.06250
 22
  1946116.37500
 32
       39.32670
 13
   960292.06250
 23
  1946116.37500
 33
       97.32670
999
Building Shading:Mir-SHADER_1
  0
3DFACE
  8
Building Shading
 62
195
 10
   960292.06250
 20
  1946116.37500
 30
       97.32670
 11
   960292.06250
 21
  1946116.37500
 31
       39.32670
 12
   960287.81250
 22
  1946128.62500
 32
       39.32670
 13
   960287.81250
 23
  1946128.62500
 33
       97.32670
999
PERIM:PERIM:F0
  0
3DFACE
  8
PERIM
 62
 43
 10
   960230.12830
 20
  1946149.46380
 30
       70.36120
 11
   960230.12830
 21
  1946149.46380
 31
       67.25300
 12
   960232.94180
 22
  1946150.50490
 32
       67.25300
 13
   960232.94180
 23
  1946150.50490
 33
       70.36120
999
PERIM:PERIM:F0:W0
  0
3DFACE
  8
PERIM
 62
143
 10
   960230.22210
 20
  1946149.49860
 30
       69.43510
 11
   960230.22210
 21
  1946149.49860
 31
       68.10300
 12
   960232.84810
 22
  1946150.47020
 32
       68.10300
 13
   960232.84810
 23
  1946150.47020
 33
       69.43510
999
PERIM:PERIM:F1
  0
3DFACE
  8
PERIM
 62
 43
 10
   960231.97660
 20
  1946153.11350
 30
       70.36120
 11
   960231.97660
 21
  1946153.11350
 31
       67.25300
 12
   960229.16310
 22
  1946152.07240
 32
       67.25300
 13
   960229.16310
 23
  1946152.07240
 33
       70.36120
999
PERIM:PERIM:F2
  0
3DFACE
  8
PERIM
 62
 43
 10
   960232.94180
 20
  1946150.50490
 30
       70.36120
 11
   960232.94180
 21
  1946150.50490
 31
       67.25300
 12
   960231.97660
 22
  1946153.11350
 32
       67.25300
 13
   960231.97660
 23
  1946153.11350
 33
       70.36120
999
PERIM:PERIM:F3
  0
3DFACE
  8
PERIM
 62
 43
 10
   960229.16310
 20
  1946152.07240
 30
       70.36120
 11
   960229.16310
 21
  1946152.07240
 31
       67.25300
 12
   960230.12830
 22
  1946149.46380
 32
       67.25300
 13
   960230.12830
 23
  1946149.46380
 33
       70.36120
999
PERIM:PERIM:F4
  0
3DFACE
  8
PERIM
 62
  8
 10
   960230.12830
 20
  1946149.46380
 30
       67.25300
 11
   960229.23660
 21
  1946151.87370
 31
       67.25300
 12
   960232.05010
 22
  1946152.91480
 32
       67.25300
 13
   960232.94180
 23
  1946150.50490
 33
       67.25300
999
PERIM:PERIM:F5
  0
3DFACE
  8
PERIM
 62
  8
 10
   960229.23660
 20
  1946151.87370
 30
       67.25300
 11
   960229.16310
 21
  1946152.07240
 31
       67.25300
 12
   960231.97660
 22
  1946153.11350
 32
       67.25300
 13
   960232.05010
 23
  1946152.91480
 33
       67.25300
999
PERIM:PERIM:F6
  0
3DFACE
  8
PERIM
 62
 15
 10
   960230.12830
 20
  1946149.46380
 30
       70.36120
 11
   960232.94180
 21
  1946150.50490
 31
       70.36120
 12
   960232.05010
 22
  1946152.91480
 32
       70.36120
 13
   960229.23660
 23
  1946151.87370
 33
       70.36120
999
PERIM:PERIM:F7
  0
3DFACE
  8
PERIM
 62
 15
 10
   960229.23660
 20
  1946151.87370
 30
       70.36120
 11
   960232.05010
 21
  1946152.91480
 31
       70.36120
 12
   960231.97660
 22
  1946153.11350
 32
       70.36120
 13
   960229.16310
 23
  1946152.07240
 33
       70.36120
999
CORE:CORE:F0
  0
3DFACE
  8
CORE
 62
 43
 10
   960229.16310
 20
  1946152.07240
 30
       70.36120
 11
   960229.16310
 21
  1946152.07240
 31
       67.25300
 12
   960231.97660
 22
  1946153.11350
 32
       67.25300
 13
   960231.97660
 23
  1946153.11350
 33
       70.36120
999
CORE:CORE:F1
  0
3DFACE
  8
CORE
 62
 43
 10
   960231.39660
 20
  1946154.68120
 30
       70.36120
 11
   960231.39660
 21
  1946154.68120
 31
       67.25300
 12
   960228.58300
 22
  1946153.64010
 32
       67.25300
 13
   960228.58300
 23
  1946153.64010
 33
       70.36120
999
CORE:CORE:F2
  0
3DFACE
  8
CORE
 62
 43
 10
   960231.97660
 20
  1946153.11350
 30
       70.36120
 11
   960231.97660
 21
  1946153.11350
 31
       67.25300
 12
   960231.39660
 22
  1946154.68120
 32
       67.25300
 13
   960231.39660
 23
  1946154.68120
 33
       70.36120
999
CORE:CORE:F3
  0
3DFACE
  8
CORE
 62
 43
 10
   960228.58300
 20
  1946153.64010
 30
       70.36120
 11
   960228.58300
 21
  1946153.64010
 31
       67.25300
 12
   960229.16310
 22
  1946152.07240
 32
       67.25300
 13
   960229.16310
 23
  1946152.07240
 33
       70.36120
999
CORE:CORE:F4
  0
3DFACE
  8
CORE
 62
  8
 10
   960229.16310
 20
  1946152.07240
 30
       67.25300
 11
   960228.62720
 21
  1946153.52070
 31
       67.25300
 12
   960231.44070
 22
  1946154.56180
 32
       67.25300
 13
   960231.97660
 23
  1946153.11350
 33
       67.25300
999
CORE:CORE:F5
  0
3DFACE
  8
CORE
 62
  8
 10
   960228.62720
 20
  1946153.52070
 30
       67.25300
 11
   960228.58300
 21
  1946153.64010
 31
       67.25300
 12
   960231.39660
 22
  1946154.68120
 32
       67.25300
 13
   960231.44070
 23
  1946154.56180
 33
       67.25300
999
CORE:CORE:F6
  0
3DFACE
  8
CORE
 62
 15
 10
   960229.16310
 20
  1946152.07240
 30
       70.36120
 11
   960231.97660
 21
  1946153.11350
 31
       70.36120
 12
   960231.44070
 22
  1946154.56180
 32
       70.36120
 13
   960228.62720
 23
  1946153.52070
 33
       70.36120
999
CORE:CORE:F7
  0
3DFACE
  8
CORE
 62
 15
 10
   960228.62720
 20
  1946153.52070
 30
       70.36120
 11
   960231.44070
 21
  1946154.56180
 31
       70.36120
 12
   960231.39660
 22
  1946154.68120
 32
       70.36120
 13
   960228.58300
 23
  1946153.64010
 33
       70.36120
  0
ENDSEC
  0
EOF
