  0
SECTION
  2
ENTITIES
999
DXF created from EnergyPlus
999
Program Version,EnergyPlus, Version 8.4.0-09f5359d8a, YMD=2023.08.02 14:39
999
Polygon Action,TRIANGULATE3DFACE
999
Color Scheme,Default
999
Text - True North
  0
TEXT
  8
1
  6
Continuous
 62
  3
 10
    99988.00000
 20
   100002.00000
 30
        0.10000
 40
 .25
  1
True North
 41
 0.0
  7
MONOTXT
210
0.0
220
0.0
230
1.0
999
Text - Building Title
  0
TEXT
  8
1
  6
Continuous
 62
  3
 10
    99985.00000
 20
    99998.00000
 30
        0.10000
 40
 .4
  1
Building - Building
 41
 0.0
  7
MONOTXT
210
0.0
220
0.0
230
1.0
999
North Arrow Stem
  0
3DFACE
  8
1
 62
  3
 10
    99989.00000
 20
   100002.00000
 30
        0.10000
 11
    99989.00000
 21
   100002.00000
 31
        0.00000
 12
    99989.00000
 22
    99999.00000
 32
        0.00000
 13
    99989.00000
 23
    99999.00000
 33
        0.10000
999
North Arrow Head 1
  0
3DFACE
  8
1
 62
  3
 10
    99989.00000
 20
   100002.00000
 30
        0.10000
 11
    99989.00000
 21
   100002.00000
 31
        0.00000
 12
    99988.50000
 22
   100001.13398
 32
        0.00000
 13
    99988.50000
 23
   100001.13398
 33
        0.10000
999
North Arrow Head 2
  0
3DFACE
  8
1
 62
  3
 10
    99989.00000
 20
   100002.00000
 30
        0.10000
 11
    99989.00000
 21
   100002.00000
 31
        0.00000
 12
    99989.50000
 22
   100001.13398
 32
        0.00000
 13
    99989.50000
 23
   100001.13398
 33
        0.10000
999
North Arrow Side 1
  0
3DFACE
  8
1
 62
  3
 10
    99988.50000
 20
   100003.50000
 30
        0.10000
 11
    99988.50000
 21
   100003.50000
 31
        0.00000
 12
    99988.50000
 22
   100002.50000
 32
        0.00000
 13
    99988.50000
 23
   100002.50000
 33
        0.10000
999
North Arrow Side 2
  0
3DFACE
  8
1
 62
  3
 10
    99988.50000
 20
   100003.50000
 30
        0.10000
 11
    99988.50000
 21
   100003.50000
 31
        0.00000
 12
    99989.50000
 22
   100002.50000
 32
        0.00000
 13
    99989.50000
 23
   100002.50000
 33
        0.10000
999
North Arrow Side 3
  0
3DFACE
  8
1
 62
  3
 10
    99989.50000
 20
   100003.50000
 30
        0.10000
 11
    99989.50000
 21
   100003.50000
 31
        0.00000
 12
    99989.50000
 22
   100002.50000
 32
        0.00000
 13
    99989.50000
 23
   100002.50000
 33
        0.10000
999
Zone Names
999
Zone=1:PERIM
999
Zone=2:CORE
999
Building Shading:SHADER_0
  0
3DFACE
  8
Building Shading
 62
195
 10
   959790.18750
 20
  1946237.62500
 30
       98.60770
 11
   959790.18750
 21
  1946237.62500
 31
       52.60770
 12
   959840.62500
 22
  1946256.37500
 32
       52.60770
 13
   959840.62500
 23
  1946256.37500
 33
       98.60770
999
Building Shading:Mir-SHADER_0
  0
3DFACE
  8
Building Shading
 62
195
 10
   959840.62500
 20
  1946256.37500
 30
       98.60770
 11
   959840.62500
 21
  1946256.37500
 31
       52.60770
 12
   959790.18750
 22
  1946237.62500
 32
       52.60770
 13
   959790.18750
 23
  1946237.62500
 33
       98.60770
999
Building Shading:SHADER_1
  0
3DFACE
  8
Building Shading
 62
195
 10
   959843.06250
 20
  1946214.37500
 30
       76.68160
 11
   959843.06250
 21
  1946214.37500
 31
       54.68160
 12
   959838.31250
 22
  1946227.62500
 32
       54.68160
 13
   959838.31250
 23
  1946227.62500
 33
       76.68160
999
Building Shading:Mir-SHADER_1
  0
3DFACE
  8
Building Shading
 62
195
 10
   959838.31250
 20
  1946227.62500
 30
       76.68160
 11
   959838.31250
 21
  1946227.62500
 31
       54.68160
 12
   959843.06250
 22
  1946214.37500
 32
       54.68160
 13
   959843.06250
 23
  1946214.37500
 33
       76.68160
999
Building Shading:SHADER_2
  0
3DFACE
  8
Building Shading
 62
195
 10
   959842.50000
 20
  1946211.50000
 30
       76.68160
 11
   959842.50000
 21
  1946211.50000
 31
       54.68160
 12
   959841.68750
 22
  1946213.87500
 32
       54.68160
 13
   959841.68750
 23
  1946213.87500
 33
       76.68160
999
Building Shading:Mir-SHADER_2
  0
3DFACE
  8
Building Shading
 62
195
 10
   959841.68750
 20
  1946213.87500
 30
       76.68160
 11
   959841.68750
 21
  1946213.87500
 31
       54.68160
 12
   959842.50000
 22
  1946211.50000
 32
       54.68160
 13
   959842.50000
 23
  1946211.50000
 33
       76.68160
999
PERIM:PERIM:F0
  0
3DFACE
  8
PERIM
 62
 43
 10
   959851.25760
 20
  1946214.45140
 30
       73.19780
 11
   959851.25760
 21
  1946214.45140
 31
       70.08960
 12
   959852.29050
 22
  1946211.63490
 32
       70.08960
 13
   959852.29050
 23
  1946211.63490
 33
       73.19780
999
PERIM:PERIM:F0:W0
  0
3DFACE
  8
PERIM
 62
143
 10
   959851.29200
 20
  1946214.35750
 30
       72.27170
 11
   959851.29200
 21
  1946214.35750
 31
       70.93960
 12
   959852.25610
 22
  1946211.72870
 32
       70.93960
 13
   959852.25610
 23
  1946211.72870
 33
       72.27170
999
PERIM:PERIM:F1
  0
3DFACE
  8
PERIM
 62
 43
 10
   959854.90190
 20
  1946212.59250
 30
       73.19780
 11
   959854.90190
 21
  1946212.59250
 31
       70.08960
 12
   959853.86890
 22
  1946215.40910
 32
       70.08960
 13
   959853.86890
 23
  1946215.40910
 33
       73.19780
999
PERIM:PERIM:F2
  0
3DFACE
  8
PERIM
 62
 43
 10
   959852.29050
 20
  1946211.63490
 30
       73.19780
 11
   959852.29050
 21
  1946211.63490
 31
       70.08960
 12
   959854.90190
 22
  1946212.59250
 32
       70.08960
 13
   959854.90190
 23
  1946212.59250
 33
       73.19780
999
PERIM:PERIM:F3
  0
3DFACE
  8
PERIM
 62
 43
 10
   959853.86890
 20
  1946215.40910
 30
       73.19780
 11
   959853.86890
 21
  1946215.40910
 31
       70.08960
 12
   959851.25760
 22
  1946214.45140
 32
       70.08960
 13
   959851.25760
 23
  1946214.45140
 33
       73.19780
999
PERIM:PERIM:F4
  0
3DFACE
  8
PERIM
 62
  8
 10
   959851.25760
 20
  1946214.45140
 30
       70.08960
 11
   959853.67010
 21
  1946215.33620
 31
       70.08960
 12
   959854.70300
 22
  1946212.51960
 32
       70.08960
 13
   959852.29050
 23
  1946211.63490
 33
       70.08960
999
PERIM:PERIM:F5
  0
3DFACE
  8
PERIM
 62
  8
 10
   959853.67010
 20
  1946215.33620
 30
       70.08960
 11
   959853.86890
 21
  1946215.40910
 31
       70.08960
 12
   959854.90190
 22
  1946212.59250
 32
       70.08960
 13
   959854.70300
 23
  1946212.51960
 33
       70.08960
999
PERIM:PERIM:F6
  0
3DFACE
  8
PERIM
 62
 15
 10
   959851.25760
 20
  1946214.45140
 30
       73.19780
 11
   959852.29050
 21
  1946211.63490
 31
       73.19780
 12
   959854.70300
 22
  1946212.51960
 32
       73.19780
 13
   959853.67010
 23
  1946215.33620
 33
       73.19780
999
PERIM:PERIM:F7
  0
3DFACE
  8
PERIM
 62
 15
 10
   959853.67010
 20
  1946215.33620
 30
       73.19780
 11
   959854.70300
 21
  1946212.51960
 31
       73.19780
 12
   959854.90190
 22
  1946212.59250
 32
       73.19780
 13
   959853.86890
 23
  1946215.40910
 33
       73.19780
999
CORE:CORE:F0
  0
3DFACE
  8
CORE
 62
 43
 10
   959853.86890
 20
  1946215.40910
 30
       73.19780
 11
   959853.86890
 21
  1946215.40910
 31
       70.08960
 12
   959854.90190
 22
  1946212.59250
 32
       70.08960
 13
   959854.90190
 23
  1946212.59250
 33
       73.19780
999
CORE:CORE:F1
  0
3DFACE
  8
CORE
 62
 43
 10
   959856.47120
 20
  1946213.16810
 30
       73.19780
 11
   959856.47120
 21
  1946213.16810
 31
       70.08960
 12
   959855.43830
 22
  1946215.98460
 32
       70.08960
 13
   959855.43830
 23
  1946215.98460
 33
       73.19780
999
CORE:CORE:F2
  0
3DFACE
  8
CORE
 62
 43
 10
   959854.90190
 20
  1946212.59250
 30
       73.19780
 11
   959854.90190
 21
  1946212.59250
 31
       70.08960
 12
   959856.47120
 22
  1946213.16810
 32
       70.08960
 13
   959856.47120
 23
  1946213.16810
 33
       73.19780
999
CORE:CORE:F3
  0
3DFACE
  8
CORE
 62
 43
 10
   959855.43830
 20
  1946215.98460
 30
       73.19780
 11
   959855.43830
 21
  1946215.98460
 31
       70.08960
 12
   959853.86890
 22
  1946215.40910
 32
       70.08960
 13
   959853.86890
 23
  1946215.40910
 33
       73.19780
999
CORE:CORE:F4
  0
3DFACE
  8
CORE
 62
  8
 10
   959853.86890
 20
  1946215.40910
 30
       70.08960
 11
   959855.31880
 21
  1946215.94080
 31
       70.08960
 12
   959856.35170
 22
  1946213.12430
 32
       70.08960
 13
   959854.90190
 23
  1946212.59250
 33
       70.08960
999
CORE:CORE:F5
  0
3DFACE
  8
CORE
 62
  8
 10
   959855.31880
 20
  1946215.94080
 30
       70.08960
 11
   959855.43830
 21
  1946215.98460
 31
       70.08960
 12
   959856.47120
 22
  1946213.16810
 32
       70.08960
 13
   959856.35170
 23
  1946213.12430
 33
       70.08960
999
CORE:CORE:F6
  0
3DFACE
  8
CORE
 62
 15
 10
   959853.86890
 20
  1946215.40910
 30
       73.19780
 11
   959854.90190
 21
  1946212.59250
 31
       73.19780
 12
   959856.35170
 22
  1946213.12430
 32
       73.19780
 13
   959855.31880
 23
  1946215.94080
 33
       73.19780
999
CORE:CORE:F7
  0
3DFACE
  8
CORE
 62
 15
 10
   959855.31880
 20
  1946215.94080
 30
       73.19780
 11
   959856.35170
 21
  1946213.12430
 31
       73.19780
 12
   959856.47120
 22
  1946213.16810
 32
       73.19780
 13
   959855.43830
 23
  1946215.98460
 33
       73.19780
  0
ENDSEC
  0
EOF
