Program Version,EnergyPlus, Version 8.4.0-09f5359d8a, YMD=2023.08.02 14:39
! <Version>, Version ID
 Version, 8.4
! <Timesteps per Hour>, #TimeSteps, Minutes per TimeStep {minutes}
 Timesteps per Hour,  4, 15
! <System Convergence Limits>, Minimum System TimeStep {minutes}, Max HVAC Iterations, Minimum Plant Iterations, Maximum Plant Iterations
 System Convergence Limits, 1, 50, 2, 8
! <Simulation Control>, Do Zone Sizing, Do System Sizing, Do Plant Sizing, Do Design Days, Do Weather Simulation, Do HVAC Sizing Simulation
 Simulation Control, No, No, No, No, Yes, No
! <Output Reporting Tolerances>, Tolerance for Time Heating Setpoint Not Met, Tolerance for Zone Cooling Setpoint Not Met Time
 Output Reporting Tolerances, 0.200, 0.200, 
! <Site:GroundTemperature:BuildingSurface>, Months From Jan to Dec {C}
 Site:GroundTemperature:BuildingSurface,  18.00,  18.00,  18.00,  18.00,  18.00,  18.00,  18.00,  18.00,  18.00,  18.00,  18.00,  18.00
! <Site:GroundTemperature:FCfactorMethod>, Months From Jan to Dec {C}
 Site:GroundTemperature:FCfactorMethod,   0.47,   2.86,   7.51,  11.91,  20.23,  24.61,  25.82,  23.60,  18.46,  12.07,   5.77,   1.61
! <Site:GroundTemperature:Shallow>, Months From Jan to Dec {C}
 Site:GroundTemperature:Shallow,  13.00,  13.00,  13.00,  13.00,  13.00,  13.00,  13.00,  13.00,  13.00,  13.00,  13.00,  13.00
! <Site:GroundTemperature:Deep>, Months From Jan to Dec {C}
 Site:GroundTemperature:Deep,  16.00,  16.00,  16.00,  16.00,  16.00,  16.00,  16.00,  16.00,  16.00,  16.00,  16.00,  16.00
! <Site:GroundReflectance>, Months From Jan to Dec {dimensionless}
 Site:GroundReflectance,  0.20,  0.20,  0.20,  0.20,  0.20,  0.20,  0.20,  0.20,  0.20,  0.20,  0.20,  0.20
! <Site:GroundReflectance:SnowModifier>, Normal, Daylighting {dimensionless}
 Site:GroundReflectance:SnowModifier,   1.000,   1.000
! <Site:GroundReflectance:Snow>, Months From Jan to Dec {dimensionless}
 Site:GroundReflectance:Snow,  0.20,  0.20,  0.20,  0.20,  0.20,  0.20,  0.20,  0.20,  0.20,  0.20,  0.20,  0.20
! <Site:GroundReflectance:Snow:Daylighting>, Months From Jan to Dec {dimensionless}
 Site:GroundReflectance:Snow:Daylighting,  0.20,  0.20,  0.20,  0.20,  0.20,  0.20,  0.20,  0.20,  0.20,  0.20,  0.20,  0.20
! <Environment:Weather Station>,Wind Sensor Height Above Ground {m},Wind Speed Profile Exponent {},Wind Speed Profile Boundary Layer Thickness {m},Air Temperature Sensor Height Above Ground {m},Wind Speed Modifier Coefficient [Internal],Temperature Modifier Coefficient [Internal]
Environment:Weather Station,10.000,0.140,270.000,1.500,1.586,9.750E-003
! <Site:Location>, Location Name, Latitude {N+/S- Deg}, Longitude {E+/W- Deg},  Time Zone Number {GMT+/-}, Elevation {m},  Standard Pressure at Elevation {Pa}, Standard RhoAir at Elevation
Site:Location,Seoul.WS SO KOR SRC-TMYx WMO#=471080,37.57,126.97,9.00,87.10,100283,1.1919
! <Building Information>, Building Name,North Axis {deg},Terrain,  Loads Convergence Tolerance Value,Temperature Convergence Tolerance Value,  Solar Distribution,Maximum Number of Warmup Days,Minimum Number of Warmup Days
 Building Information,Building,0.000,Suburbs,4.00000E-002,0.40000,FullExterior,25,6
! <Inside Convection Algorithm>, Algorithm {Simple | TARP | CeilingDiffuser | AdaptiveConvectionAlgorithm}
Inside Convection Algorithm,TARP
! <Outside Convection Algorithm>, Algorithm {SimpleCombined | TARP | MoWitt | DOE-2 | AdaptiveConvectionAlgorithm}
Outside Convection Algorithm,DOE-2
! <Sky Radiance Distribution>, Value {Anisotropic}
Sky Radiance Distribution,Anisotropic
! <Zone Air Solution Algorithm>, Value {ThirdOrderBackwardDifference | AnalyticalSolution | EulerMethod}
 Zone Air Solution Algorithm, ThirdOrderBackwardDifference
! <Zone Air Carbon Dioxide Balance Simulation>, Simulation {Yes/No}, Carbon Dioxide Concentration
 Zone Air Carbon Dioxide Balance Simulation, No,N/A
! <Zone Air Generic Contaminant Balance Simulation>, Simulation {Yes/No}, Generic Contaminant Concentration
 Zone Air Generic Contaminant Balance Simulation, No,N/A
! <Zone Air Mass Flow Balance Simulation>, Enforce Mass Balance, Adjust Zone Mixing, Adjust Zone Infiltration {AddInfiltration | AdjustInfiltration | None}, Infiltration Zones {MixingSourceZonesOnly | AllZones}
 Zone Air Mass Flow Balance Simulation, No,N/A,N/A,N/A
! <Environment:Site Atmospheric Variation>,Wind Speed Profile Exponent {},Wind Speed Profile Boundary Layer Thickness {m},Air Temperature Gradient Coefficient {K/m}
Environment:Site Atmospheric Variation,0.220,370.000,6.500000E-003
! <SurfaceGeometry>,Starting Corner,Vertex Input Direction,Coordinate System,Daylight Reference Point Coordinate System,Rectangular (Simple) Surface Coordinate System
 Surface Geometry,LowerLeftCorner,Counterclockwise,WorldCoordinateSystem,RelativeCoordinateSystem,RelativeToZoneOrigin
! <Surface Heat Transfer Algorithm>, Value {CTF - ConductionTransferFunction | EMPD - MoisturePenetrationDepthConductionTransferFunction | CondFD - ConductionFiniteDifference | HAMT - CombinedHeatAndMoistureFiniteElement} - Description,Inside Surface Max Temperature Limit{C}, Surface Convection Coefficient Lower Limit {W/m2-K}, Surface Convection Coefficient Upper Limit {W/m2-K}
Surface Heat Transfer Algorithm, CTF - ConductionTransferFunction,200,0.10,1000.0
! <Zone/Shading Surfaces>,<Zone Name>/#Shading Surfaces,# Surfaces
! <HeatTransfer/Shading/Frame/Divider_Surface>,Surface Name,Surface Class,Base Surface,Heat Transfer Algorithm,Construction/Transmittance Schedule,Nominal U (w/o film coefs)/Min Schedule Value,Nominal U (with film coefs)/Max Schedule Value,Solar Diffusing,Area (Net),Area (Gross),Area (Sunlit Calc),Azimuth,Tilt,~Width,~Height,Reveal,<ExtBoundCondition>,<ExtConvCoeffCalc>,<IntConvCoeffCalc>,<SunExposure>,<WindExposure>,ViewFactorToGround,ViewFactorToSky,ViewFactorToGround-IR,ViewFactorToSky-IR,#Sides
! <Units>,,,,,,{W/m2-K}/{},{W/m2-K}/{},{},{m2},{m2},{m2},{deg},{deg},{m},{m},{m},,,,,,,,,,
Shading_Surfaces,Number of Shading Surfaces,   12
Shading_Surface,SHADER_0,Detached Shading:Building,,None,,0.0,0.0, ,209.28,209.28,209.28,165.72,90.00,3.55,59.00,,,,,,,,,,,4
Shading_Surface,Mir-SHADER_0,Detached Shading:Building,,None,,0.0,0.0, ,209.28,209.28,209.28,345.72,90.00,3.55,59.00,,,,,,,,,,,4
Shading_Surface,SHADER_1,Detached Shading:Building,,None,,0.0,0.0, ,12.30,12.30,12.30,78.23,90.00,1.53,7.38,,,,,,,,,,,4
Shading_Surface,Mir-SHADER_1,Detached Shading:Building,,None,,0.0,0.0, ,12.30,12.30,12.30,258.23,90.00,1.53,7.38,,,,,,,,,,,4
Shading_Surface,SHADER_2,Detached Shading:Building,,None,,0.0,0.0, ,0.00,0.00,0.00,180.00,90.00,0.00,7.38,,,,,,,,,,,3
Shading_Surface,Mir-SHADER_2,Detached Shading:Building,,None,,0.0,0.0, ,0.00,0.00,0.00,180.00,90.00,0.00,7.38,,,,,,,,,,,3
Shading_Surface,SHADER_3,Detached Shading:Building,,None,,0.0,0.0, ,0.00,0.00,0.00,180.00,90.00,14.75,0.00,,,,,,,,,,,3
Shading_Surface,Mir-SHADER_3,Detached Shading:Building,,None,,0.0,0.0, ,0.00,0.00,0.00,180.00,90.00,14.75,0.00,,,,,,,,,,,3
Shading_Surface,SHADER_4,Detached Shading:Building,,None,,0.0,0.0, ,1518.11,1518.11,1518.11,347.76,90.00,58.39,26.00,,,,,,,,,,,4
Shading_Surface,Mir-SHADER_4,Detached Shading:Building,,None,,0.0,0.0, ,1518.11,1518.11,1518.11,167.76,90.00,58.39,26.00,,,,,,,,,,,4
Shading_Surface,SHADER_5,Detached Shading:Building,,None,,0.0,0.0, ,441.94,441.94,441.94,347.01,90.00,8.34,53.00,,,,,,,,,,,4
Shading_Surface,Mir-SHADER_5,Detached Shading:Building,,None,,0.0,0.0, ,441.94,441.94,441.94,167.01,90.00,8.34,53.00,,,,,,,,,,,4
Zone_Surfaces,PERIM,   10
HeatTransfer_Surface,PERIM:F0,Wall,,CTF - ConductionTransferFunction,,0.485,0.452,,5.59,9.32,5.59,257.63,90.00,3.00,3.11,0.00,ExternalEnvironment,DOE-2,ASHRAETARP,SunExposed,WindExposed,0.50,0.50,0.50,0.50,4
HeatTransfer_Surface,PERIM:F0:W0,Window,PERIM:F0,Window5 Detailed Fenestration,,N/A,4.236,No,3.73,3.73,3.73,257.63,90.00,2.80,1.33,0.00,ExternalEnvironment,DOE-2,ASHRAETARP,SunExposed,WindExposed,0.50,0.50,0.50,0.50,4
HeatTransfer_Surface,PERIM:F1,Wall,,CTF - ConductionTransferFunction,,4.015,2.508,,9.32,9.32,9.32,77.63,90.00,3.00,3.11,0.00,CORE:F0,Other/Same Surface Int Conv,ASHRAETARP,NoSun,NoWind,0.00,0.50,0.50,0.50,4
HeatTransfer_Surface,PERIM:F2,Wall,,CTF - ConductionTransferFunction,,4.015,2.508,,8.65,8.65,8.65,167.63,90.00,2.78,3.11,0.00,PERIM:F2,Other/Same Surface Int Conv,ASHRAETARP,NoSun,NoWind,0.00,0.50,0.50,0.50,4
HeatTransfer_Surface,PERIM:F3,Wall,,CTF - ConductionTransferFunction,,4.015,2.508,,8.65,8.65,8.65,347.63,90.00,2.78,3.11,0.00,PERIM:F3,Other/Same Surface Int Conv,ASHRAETARP,NoSun,NoWind,0.00,0.50,0.50,0.50,4
HeatTransfer_Surface,PERIM:F4,Floor,,CTF - ConductionTransferFunction,,1.070,0.849,,7.71,7.71,7.71,257.63,180.00,3.00,2.57,0.00,PERIM:F4,Other/Same Surface Int Conv,ASHRAETARP,NoSun,NoWind,0.00,0.00,1.00,0.00,4
HeatTransfer_Surface,PERIM:F5,Floor,,CTF - ConductionTransferFunction,,1.403,1.046,,0.64,0.64,0.64,257.63,180.00,3.00,0.21,0.00,Ground,N/A-Ground,ASHRAETARP,NoSun,NoWind,1.00,0.00,1.00,0.00,4
HeatTransfer_Surface,PERIM:F6,Roof,,CTF - ConductionTransferFunction,,1.070,0.891,,7.71,7.71,7.71,167.63,0.00,2.57,3.00,0.00,PERIM:F6,Other/Same Surface Int Conv,ASHRAETARP,NoSun,NoWind,0.00,1.00,0.00,1.00,4
HeatTransfer_Surface,PERIM:F7,Roof,,CTF - ConductionTransferFunction,,0.303,0.287,,0.64,0.64,0.64,167.62,0.00,0.21,3.00,0.00,ExternalEnvironment,DOE-2,ASHRAETARP,SunExposed,WindExposed,0.00,1.00,0.00,1.00,4
HeatTransfer_Surface,PERIMINTERNALMASS,Internal Mass,,CTF - ConductionTransferFunction,,4.015,4.015,,7.51,7.51,7.51,0.00,90.00,7.51,1.00,0.00,PERIMINTERNALMASS,Other/Same Surface Int Conv,ASHRAETARP,NoSun,NoWind,0.00,0.50,0.00,0.00,0
Zone_Surfaces,CORE,    9
HeatTransfer_Surface,CORE:F0,Wall,,CTF - ConductionTransferFunction,,4.015,2.508,,9.32,9.32,9.32,257.63,90.00,3.00,3.11,0.00,PERIM:F1,Other/Same Surface Int Conv,ASHRAETARP,NoSun,NoWind,0.00,0.50,0.50,0.50,4
HeatTransfer_Surface,CORE:F1,Wall,,CTF - ConductionTransferFunction,,4.015,2.508,,9.32,9.32,9.32,77.63,90.00,3.00,3.11,0.00,CORE:F1,Other/Same Surface Int Conv,ASHRAETARP,NoSun,NoWind,0.00,0.50,0.50,0.50,4
HeatTransfer_Surface,CORE:F2,Wall,,CTF - ConductionTransferFunction,,4.015,2.508,,5.20,5.20,5.20,167.63,90.00,1.67,3.11,0.00,CORE:F2,Other/Same Surface Int Conv,ASHRAETARP,NoSun,NoWind,0.00,0.50,0.50,0.50,4
HeatTransfer_Surface,CORE:F3,Wall,,CTF - ConductionTransferFunction,,4.015,2.508,,5.20,5.20,5.20,347.63,90.00,1.67,3.11,0.00,CORE:F3,Other/Same Surface Int Conv,ASHRAETARP,NoSun,NoWind,0.00,0.50,0.50,0.50,4
HeatTransfer_Surface,CORE:F4,Floor,,CTF - ConductionTransferFunction,,1.070,0.849,,4.63,4.63,4.63,257.63,180.00,3.00,1.54,0.00,CORE:F4,Other/Same Surface Int Conv,ASHRAETARP,NoSun,NoWind,0.00,0.00,1.00,0.00,4
HeatTransfer_Surface,CORE:F5,Floor,,CTF - ConductionTransferFunction,,1.403,1.046,,0.38,0.38,0.38,257.63,180.00,3.00,0.13,0.00,Ground,N/A-Ground,ASHRAETARP,NoSun,NoWind,1.00,0.00,1.00,0.00,4
HeatTransfer_Surface,CORE:F6,Roof,,CTF - ConductionTransferFunction,,1.070,0.891,,4.63,4.63,4.63,167.63,0.00,1.54,3.00,0.00,CORE:F6,Other/Same Surface Int Conv,ASHRAETARP,NoSun,NoWind,0.00,1.00,0.00,1.00,4
HeatTransfer_Surface,CORE:F7,Roof,,CTF - ConductionTransferFunction,,0.303,0.287,,0.38,0.38,0.38,167.62,0.00,0.13,3.00,0.00,ExternalEnvironment,DOE-2,ASHRAETARP,SunExposed,WindExposed,0.00,1.00,0.00,1.00,4
HeatTransfer_Surface,COREINTERNALMASS,Internal Mass,,CTF - ConductionTransferFunction,,4.015,4.015,,4.51,4.51,4.51,0.00,90.00,4.51,1.00,0.00,COREINTERNALMASS,Other/Same Surface Int Conv,ASHRAETARP,NoSun,NoWind,0.00,0.50,0.00,0.00,0
