  0
SECTION
  2
ENTITIES
999
DXF created from EnergyPlus
999
Program Version,EnergyPlus, Version 8.4.0-09f5359d8a, YMD=2023.08.02 14:39
999
Polygon Action,TRIANGULATE3DFACE
999
Color Scheme,Default
999
Text - True North
  0
TEXT
  8
1
  6
Continuous
 62
  3
 10
    99988.00000
 20
   100002.00000
 30
        0.10000
 40
 .25
  1
True North
 41
 0.0
  7
MONOTXT
210
0.0
220
0.0
230
1.0
999
Text - Building Title
  0
TEXT
  8
1
  6
Continuous
 62
  3
 10
    99985.00000
 20
    99998.00000
 30
        0.10000
 40
 .4
  1
Building - Building
 41
 0.0
  7
MONOTXT
210
0.0
220
0.0
230
1.0
999
North Arrow Stem
  0
3DFACE
  8
1
 62
  3
 10
    99989.00000
 20
   100002.00000
 30
        0.10000
 11
    99989.00000
 21
   100002.00000
 31
        0.00000
 12
    99989.00000
 22
    99999.00000
 32
        0.00000
 13
    99989.00000
 23
    99999.00000
 33
        0.10000
999
North Arrow Head 1
  0
3DFACE
  8
1
 62
  3
 10
    99989.00000
 20
   100002.00000
 30
        0.10000
 11
    99989.00000
 21
   100002.00000
 31
        0.00000
 12
    99988.50000
 22
   100001.13398
 32
        0.00000
 13
    99988.50000
 23
   100001.13398
 33
        0.10000
999
North Arrow Head 2
  0
3DFACE
  8
1
 62
  3
 10
    99989.00000
 20
   100002.00000
 30
        0.10000
 11
    99989.00000
 21
   100002.00000
 31
        0.00000
 12
    99989.50000
 22
   100001.13398
 32
        0.00000
 13
    99989.50000
 23
   100001.13398
 33
        0.10000
999
North Arrow Side 1
  0
3DFACE
  8
1
 62
  3
 10
    99988.50000
 20
   100003.50000
 30
        0.10000
 11
    99988.50000
 21
   100003.50000
 31
        0.00000
 12
    99988.50000
 22
   100002.50000
 32
        0.00000
 13
    99988.50000
 23
   100002.50000
 33
        0.10000
999
North Arrow Side 2
  0
3DFACE
  8
1
 62
  3
 10
    99988.50000
 20
   100003.50000
 30
        0.10000
 11
    99988.50000
 21
   100003.50000
 31
        0.00000
 12
    99989.50000
 22
   100002.50000
 32
        0.00000
 13
    99989.50000
 23
   100002.50000
 33
        0.10000
999
North Arrow Side 3
  0
3DFACE
  8
1
 62
  3
 10
    99989.50000
 20
   100003.50000
 30
        0.10000
 11
    99989.50000
 21
   100003.50000
 31
        0.00000
 12
    99989.50000
 22
   100002.50000
 32
        0.00000
 13
    99989.50000
 23
   100002.50000
 33
        0.10000
999
Zone Names
999
Zone=1:PERIM
999
Zone=2:CORE
999
Building Shading:SHADER_0
  0
3DFACE
  8
Building Shading
 62
195
 10
   959777.43750
 20
  1946570.00000
 30
       96.98660
 11
   959777.43750
 21
  1946570.00000
 31
       37.98660
 12
   959780.87500
 22
  1946570.87500
 32
       37.98660
 13
   959780.87500
 23
  1946570.87500
 33
       96.98660
999
Building Shading:Mir-SHADER_0
  0
3DFACE
  8
Building Shading
 62
195
 10
   959780.87500
 20
  1946570.87500
 30
       96.98660
 11
   959780.87500
 21
  1946570.87500
 31
       37.98660
 12
   959777.43750
 22
  1946570.00000
 32
       37.98660
 13
   959777.43750
 23
  1946570.00000
 33
       96.98660
999
Building Shading:SHADER_1
  0
3DFACE
  8
Building Shading
 62
195
 10
   959777.43750
 20
  1946570.00000
 30
       37.98660
 11
   959777.50000
 21
  1946569.87500
 31
       45.36160
 12
   959777.81250
 22
  1946568.37500
 32
       45.36160
 13
   959777.87500
 23
  1946568.25000
 33
       37.98660
999
Building Shading:Mir-SHADER_1
  0
3DFACE
  8
Building Shading
 62
195
 10
   959777.87500
 20
  1946568.25000
 30
       37.98660
 11
   959777.81250
 21
  1946568.37500
 31
       45.36160
 12
   959777.50000
 22
  1946569.87500
 32
       45.36160
 13
   959777.43750
 23
  1946570.00000
 33
       37.98660
999
Building Shading:SHADER_2
  0
3DFACE
  8
Building Shading
 62
195
 10
   959777.81250
 20
  1946568.37500
 30
       52.73660
 11
   959777.81250
 21
  1946568.37500
 31
       45.36160
 12
   959777.81250
 22
  1946568.37500
 32
       45.36160
 13
   959777.81250
 23
  1946568.37500
 33
       45.36160
999
Building Shading:Mir-SHADER_2
  0
3DFACE
  8
Building Shading
 62
195
 10
   959777.81250
 20
  1946568.37500
 30
       45.36160
 11
   959777.81250
 21
  1946568.37500
 31
       45.36160
 12
   959777.81250
 22
  1946568.37500
 32
       52.73660
 13
   959777.81250
 23
  1946568.37500
 33
       52.73660
999
Building Shading:SHADER_3
  0
3DFACE
  8
Building Shading
 62
195
 10
   959777.81250
 20
  1946568.37500
 30
       52.73660
 11
   959777.81250
 21
  1946568.37500
 31
       52.73660
 12
   959777.81250
 22
  1946568.37500
 32
       67.48660
 13
   959777.81250
 23
  1946568.37500
 33
       67.48660
999
Building Shading:Mir-SHADER_3
  0
3DFACE
  8
Building Shading
 62
195
 10
   959777.81250
 20
  1946568.37500
 30
       67.48660
 11
   959777.81250
 21
  1946568.37500
 31
       52.73660
 12
   959777.81250
 22
  1946568.37500
 32
       52.73660
 13
   959777.81250
 23
  1946568.37500
 33
       52.73660
999
Building Shading:SHADER_4
  0
3DFACE
  8
Building Shading
 62
195
 10
   959761.62500
 20
  1946538.87500
 30
       65.98010
 11
   959761.62500
 21
  1946538.87500
 31
       39.98010
 12
   959704.56250
 22
  1946526.50000
 32
       39.98010
 13
   959704.56250
 23
  1946526.50000
 33
       65.98010
999
Building Shading:Mir-SHADER_4
  0
3DFACE
  8
Building Shading
 62
195
 10
   959704.56250
 20
  1946526.50000
 30
       65.98010
 11
   959704.56250
 21
  1946526.50000
 31
       39.98010
 12
   959761.62500
 22
  1946538.87500
 32
       39.98010
 13
   959761.62500
 23
  1946538.87500
 33
       65.98010
999
Building Shading:SHADER_5
  0
3DFACE
  8
Building Shading
 62
195
 10
   959785.50000
 20
  1946495.50000
 30
       93.09530
 11
   959785.50000
 21
  1946495.50000
 31
       40.09530
 12
   959777.37500
 22
  1946493.62500
 32
       40.09530
 13
   959777.37500
 23
  1946493.62500
 33
       93.09530
999
Building Shading:Mir-SHADER_5
  0
3DFACE
  8
Building Shading
 62
195
 10
   959777.37500
 20
  1946493.62500
 30
       93.09530
 11
   959777.37500
 21
  1946493.62500
 31
       40.09530
 12
   959785.50000
 22
  1946495.50000
 32
       40.09530
 13
   959785.50000
 23
  1946495.50000
 33
       93.09530
999
PERIM:PERIM:F0
  0
3DFACE
  8
PERIM
 62
 43
 10
   959780.74340
 20
  1946571.51300
 30
       44.20010
 11
   959780.74340
 21
  1946571.51300
 31
       41.09190
 12
   959781.38620
 22
  1946568.58270
 32
       41.09190
 13
   959781.38620
 23
  1946568.58270
 33
       44.20010
999
PERIM:PERIM:F0:W0
  0
3DFACE
  8
PERIM
 62
143
 10
   959780.76490
 20
  1946571.41530
 30
       43.27400
 11
   959780.76490
 21
  1946571.41530
 31
       41.94190
 12
   959781.36480
 22
  1946568.68040
 32
       41.94190
 13
   959781.36480
 23
  1946568.68040
 33
       43.27400
999
PERIM:PERIM:F1
  0
3DFACE
  8
PERIM
 62
 43
 10
   959784.10300
 20
  1946569.17860
 30
       44.20010
 11
   959784.10300
 21
  1946569.17860
 31
       41.09190
 12
   959783.46020
 22
  1946572.10890
 32
       41.09190
 13
   959783.46020
 23
  1946572.10890
 33
       44.20010
999
PERIM:PERIM:F2
  0
3DFACE
  8
PERIM
 62
 43
 10
   959781.38620
 20
  1946568.58270
 30
       44.20010
 11
   959781.38620
 21
  1946568.58270
 31
       41.09190
 12
   959784.10300
 22
  1946569.17860
 32
       41.09190
 13
   959784.10300
 23
  1946569.17860
 33
       44.20010
999
PERIM:PERIM:F3
  0
3DFACE
  8
PERIM
 62
 43
 10
   959783.46020
 20
  1946572.10890
 30
       44.20010
 11
   959783.46020
 21
  1946572.10890
 31
       41.09190
 12
   959780.74340
 22
  1946571.51300
 32
       41.09190
 13
   959780.74340
 23
  1946571.51300
 33
       44.20010
999
PERIM:PERIM:F4
  0
3DFACE
  8
PERIM
 62
  8
 10
   959780.74340
 20
  1946571.51300
 30
       41.09190
 11
   959783.25330
 21
  1946572.06360
 31
       41.09190
 12
   959783.89610
 22
  1946569.13320
 32
       41.09190
 13
   959781.38620
 23
  1946568.58270
 33
       41.09190
999
PERIM:PERIM:F5
  0
3DFACE
  8
PERIM
 62
  8
 10
   959783.25330
 20
  1946572.06360
 30
       41.09190
 11
   959783.46020
 21
  1946572.10890
 31
       41.09190
 12
   959784.10300
 22
  1946569.17860
 32
       41.09190
 13
   959783.89610
 23
  1946569.13320
 33
       41.09190
999
PERIM:PERIM:F6
  0
3DFACE
  8
PERIM
 62
 15
 10
   959780.74340
 20
  1946571.51300
 30
       44.20010
 11
   959781.38620
 21
  1946568.58270
 31
       44.20010
 12
   959783.89610
 22
  1946569.13320
 32
       44.20010
 13
   959783.25330
 23
  1946572.06360
 33
       44.20010
999
PERIM:PERIM:F7
  0
3DFACE
  8
PERIM
 62
 15
 10
   959783.25330
 20
  1946572.06360
 30
       44.20010
 11
   959783.89610
 21
  1946569.13320
 31
       44.20010
 12
   959784.10300
 22
  1946569.17860
 32
       44.20010
 13
   959783.46020
 23
  1946572.10890
 33
       44.20010
999
CORE:CORE:F0
  0
3DFACE
  8
CORE
 62
 43
 10
   959783.46020
 20
  1946572.10890
 30
       44.20010
 11
   959783.46020
 21
  1946572.10890
 31
       41.09190
 12
   959784.10300
 22
  1946569.17860
 32
       41.09190
 13
   959784.10300
 23
  1946569.17860
 33
       44.20010
999
CORE:CORE:F1
  0
3DFACE
  8
CORE
 62
 43
 10
   959785.73580
 20
  1946569.53680
 30
       44.20010
 11
   959785.73580
 21
  1946569.53680
 31
       41.09190
 12
   959785.09300
 22
  1946572.46710
 32
       41.09190
 13
   959785.09300
 23
  1946572.46710
 33
       44.20010
999
CORE:CORE:F2
  0
3DFACE
  8
CORE
 62
 43
 10
   959784.10300
 20
  1946569.17860
 30
       44.20010
 11
   959784.10300
 21
  1946569.17860
 31
       41.09190
 12
   959785.73580
 22
  1946569.53680
 32
       41.09190
 13
   959785.73580
 23
  1946569.53680
 33
       44.20010
999
CORE:CORE:F3
  0
3DFACE
  8
CORE
 62
 43
 10
   959785.09300
 20
  1946572.46710
 30
       44.20010
 11
   959785.09300
 21
  1946572.46710
 31
       41.09190
 12
   959783.46020
 22
  1946572.10890
 32
       41.09190
 13
   959783.46020
 23
  1946572.10890
 33
       44.20010
999
CORE:CORE:F4
  0
3DFACE
  8
CORE
 62
  8
 10
   959783.46020
 20
  1946572.10890
 30
       41.09190
 11
   959784.96860
 21
  1946572.43980
 31
       41.09190
 12
   959785.61140
 22
  1946569.50950
 32
       41.09190
 13
   959784.10300
 23
  1946569.17860
 33
       41.09190
999
CORE:CORE:F5
  0
3DFACE
  8
CORE
 62
  8
 10
   959784.96860
 20
  1946572.43980
 30
       41.09190
 11
   959785.09300
 21
  1946572.46710
 31
       41.09190
 12
   959785.73580
 22
  1946569.53680
 32
       41.09190
 13
   959785.61140
 23
  1946569.50950
 33
       41.09190
999
CORE:CORE:F6
  0
3DFACE
  8
CORE
 62
 15
 10
   959783.46020
 20
  1946572.10890
 30
       44.20010
 11
   959784.10300
 21
  1946569.17860
 31
       44.20010
 12
   959785.61140
 22
  1946569.50950
 32
       44.20010
 13
   959784.96860
 23
  1946572.43980
 33
       44.20010
999
CORE:CORE:F7
  0
3DFACE
  8
CORE
 62
 15
 10
   959784.96860
 20
  1946572.43980
 30
       44.20010
 11
   959785.61140
 21
  1946569.50950
 31
       44.20010
 12
   959785.73580
 22
  1946569.53680
 32
       44.20010
 13
   959785.09300
 23
  1946572.46710
 33
       44.20010
  0
ENDSEC
  0
EOF
