  0
SECTION
  2
ENTITIES
999
DXF created from EnergyPlus
999
Program Version,EnergyPlus, Version 8.4.0-09f5359d8a, YMD=2023.08.02 14:39
999
Polygon Action,TRIANGULATE3DFACE
999
Color Scheme,Default
999
Text - True North
  0
TEXT
  8
1
  6
Continuous
 62
  3
 10
    99988.00000
 20
   100002.00000
 30
        0.10000
 40
 .25
  1
True North
 41
 0.0
  7
MONOTXT
210
0.0
220
0.0
230
1.0
999
Text - Building Title
  0
TEXT
  8
1
  6
Continuous
 62
  3
 10
    99985.00000
 20
    99998.00000
 30
        0.10000
 40
 .4
  1
Building - Building
 41
 0.0
  7
MONOTXT
210
0.0
220
0.0
230
1.0
999
North Arrow Stem
  0
3DFACE
  8
1
 62
  3
 10
    99989.00000
 20
   100002.00000
 30
        0.10000
 11
    99989.00000
 21
   100002.00000
 31
        0.00000
 12
    99989.00000
 22
    99999.00000
 32
        0.00000
 13
    99989.00000
 23
    99999.00000
 33
        0.10000
999
North Arrow Head 1
  0
3DFACE
  8
1
 62
  3
 10
    99989.00000
 20
   100002.00000
 30
        0.10000
 11
    99989.00000
 21
   100002.00000
 31
        0.00000
 12
    99988.50000
 22
   100001.13398
 32
        0.00000
 13
    99988.50000
 23
   100001.13398
 33
        0.10000
999
North Arrow Head 2
  0
3DFACE
  8
1
 62
  3
 10
    99989.00000
 20
   100002.00000
 30
        0.10000
 11
    99989.00000
 21
   100002.00000
 31
        0.00000
 12
    99989.50000
 22
   100001.13398
 32
        0.00000
 13
    99989.50000
 23
   100001.13398
 33
        0.10000
999
North Arrow Side 1
  0
3DFACE
  8
1
 62
  3
 10
    99988.50000
 20
   100003.50000
 30
        0.10000
 11
    99988.50000
 21
   100003.50000
 31
        0.00000
 12
    99988.50000
 22
   100002.50000
 32
        0.00000
 13
    99988.50000
 23
   100002.50000
 33
        0.10000
999
North Arrow Side 2
  0
3DFACE
  8
1
 62
  3
 10
    99988.50000
 20
   100003.50000
 30
        0.10000
 11
    99988.50000
 21
   100003.50000
 31
        0.00000
 12
    99989.50000
 22
   100002.50000
 32
        0.00000
 13
    99989.50000
 23
   100002.50000
 33
        0.10000
999
North Arrow Side 3
  0
3DFACE
  8
1
 62
  3
 10
    99989.50000
 20
   100003.50000
 30
        0.10000
 11
    99989.50000
 21
   100003.50000
 31
        0.00000
 12
    99989.50000
 22
   100002.50000
 32
        0.00000
 13
    99989.50000
 23
   100002.50000
 33
        0.10000
999
Zone Names
999
Zone=1:PERIM
999
Zone=2:CORE
999
Building Shading:SHADER_0
  0
3DFACE
  8
Building Shading
 62
195
 10
   960233.25000
 20
  1946174.12500
 30
       79.25300
 11
   960233.25000
 21
  1946174.12500
 31
       40.25300
 12
   960232.00000
 22
  1946173.75000
 32
       40.25300
 13
   960232.00000
 23
  1946173.75000
 33
       79.25300
999
Building Shading:Mir-SHADER_0
  0
3DFACE
  8
Building Shading
 62
195
 10
   960232.00000
 20
  1946173.75000
 30
       79.25300
 11
   960232.00000
 21
  1946173.75000
 31
       40.25300
 12
   960233.25000
 22
  1946174.12500
 32
       40.25300
 13
   960233.25000
 23
  1946174.12500
 33
       79.25300
999
Building Shading:SHADER_1
  0
3DFACE
  8
Building Shading
 62
195
 10
   960313.50000
 20
  1946137.87500
 30
       97.32670
 11
   960313.50000
 21
  1946137.87500
 31
       39.32670
 12
   960306.93750
 22
  1946135.62500
 32
       39.32670
 13
   960306.93750
 23
  1946135.62500
 33
       97.32670
999
Building Shading:Mir-SHADER_1
  0
3DFACE
  8
Building Shading
 62
195
 10
   960306.93750
 20
  1946135.62500
 30
       97.32670
 11
   960306.93750
 21
  1946135.62500
 31
       39.32670
 12
   960313.50000
 22
  1946137.87500
 32
       39.32670
 13
   960313.50000
 23
  1946137.87500
 33
       97.32670
999
Building Shading:SHADER_2
  0
3DFACE
  8
Building Shading
 62
195
 10
   960318.25000
 20
  1946187.50000
 30
      101.02920
 11
   960318.25000
 21
  1946187.50000
 31
       41.02920
 12
   960320.50000
 22
  1946181.25000
 32
       41.02920
 13
   960320.50000
 23
  1946181.25000
 33
      101.02920
999
Building Shading:Mir-SHADER_2
  0
3DFACE
  8
Building Shading
 62
195
 10
   960320.50000
 20
  1946181.25000
 30
      101.02920
 11
   960320.50000
 21
  1946181.25000
 31
       41.02920
 12
   960318.25000
 22
  1946187.50000
 32
       41.02920
 13
   960318.25000
 23
  1946187.50000
 33
      101.02920
999
PERIM:PERIM:F0
  0
3DFACE
  8
PERIM
 62
 43
 10
   960231.54680
 20
  1946175.12110
 30
       46.36120
 11
   960231.54680
 21
  1946175.12110
 31
       43.25300
 12
   960230.55700
 22
  1946177.95310
 32
       43.25300
 13
   960230.55700
 23
  1946177.95310
 33
       46.36120
999
PERIM:PERIM:F0:W0
  0
3DFACE
  8
PERIM
 62
143
 10
   960231.51380
 20
  1946175.21550
 30
       45.43510
 11
   960231.51380
 21
  1946175.21550
 31
       44.10300
 12
   960230.59000
 22
  1946177.85870
 32
       44.10300
 13
   960230.59000
 23
  1946177.85870
 33
       45.43510
999
PERIM:PERIM:F1
  0
3DFACE
  8
PERIM
 62
 43
 10
   960227.93140
 20
  1946177.03540
 30
       46.36120
 11
   960227.93140
 21
  1946177.03540
 31
       43.25300
 12
   960228.92120
 22
  1946174.20340
 32
       43.25300
 13
   960228.92120
 23
  1946174.20340
 33
       46.36120
999
PERIM:PERIM:F2
  0
3DFACE
  8
PERIM
 62
 43
 10
   960230.55700
 20
  1946177.95310
 30
       46.36120
 11
   960230.55700
 21
  1946177.95310
 31
       43.25300
 12
   960227.93140
 22
  1946177.03540
 32
       43.25300
 13
   960227.93140
 23
  1946177.03540
 33
       46.36120
999
PERIM:PERIM:F3
  0
3DFACE
  8
PERIM
 62
 43
 10
   960228.92120
 20
  1946174.20340
 30
       46.36120
 11
   960228.92120
 21
  1946174.20340
 31
       43.25300
 12
   960231.54680
 22
  1946175.12110
 32
       43.25300
 13
   960231.54680
 23
  1946175.12110
 33
       46.36120
999
PERIM:PERIM:F4
  0
3DFACE
  8
PERIM
 62
  8
 10
   960231.54680
 20
  1946175.12110
 30
       43.25300
 11
   960229.12120
 21
  1946174.27330
 31
       43.25300
 12
   960228.13130
 22
  1946177.10530
 32
       43.25300
 13
   960230.55700
 23
  1946177.95310
 33
       43.25300
999
PERIM:PERIM:F5
  0
3DFACE
  8
PERIM
 62
  8
 10
   960229.12120
 20
  1946174.27330
 30
       43.25300
 11
   960228.92120
 21
  1946174.20340
 31
       43.25300
 12
   960227.93140
 22
  1946177.03540
 32
       43.25300
 13
   960228.13130
 23
  1946177.10530
 33
       43.25300
999
PERIM:PERIM:F6
  0
3DFACE
  8
PERIM
 62
 15
 10
   960231.54680
 20
  1946175.12110
 30
       46.36120
 11
   960230.55700
 21
  1946177.95310
 31
       46.36120
 12
   960228.13130
 22
  1946177.10530
 32
       46.36120
 13
   960229.12120
 23
  1946174.27330
 33
       46.36120
999
PERIM:PERIM:F7
  0
3DFACE
  8
PERIM
 62
 15
 10
   960229.12120
 20
  1946174.27330
 30
       46.36120
 11
   960228.13130
 21
  1946177.10530
 31
       46.36120
 12
   960227.93140
 22
  1946177.03540
 32
       46.36120
 13
   960228.92120
 23
  1946174.20340
 33
       46.36120
999
CORE:CORE:F0
  0
3DFACE
  8
CORE
 62
 43
 10
   960228.92120
 20
  1946174.20340
 30
       46.36120
 11
   960228.92120
 21
  1946174.20340
 31
       43.25300
 12
   960227.93140
 22
  1946177.03540
 32
       43.25300
 13
   960227.93140
 23
  1946177.03540
 33
       46.36120
999
CORE:CORE:F1
  0
3DFACE
  8
CORE
 62
 43
 10
   960226.35340
 20
  1946176.48390
 30
       46.36120
 11
   960226.35340
 21
  1946176.48390
 31
       43.25300
 12
   960227.34320
 22
  1946173.65190
 32
       43.25300
 13
   960227.34320
 23
  1946173.65190
 33
       46.36120
999
CORE:CORE:F2
  0
3DFACE
  8
CORE
 62
 43
 10
   960227.93140
 20
  1946177.03540
 30
       46.36120
 11
   960227.93140
 21
  1946177.03540
 31
       43.25300
 12
   960226.35340
 22
  1946176.48390
 32
       43.25300
 13
   960226.35340
 23
  1946176.48390
 33
       46.36120
999
CORE:CORE:F3
  0
3DFACE
  8
CORE
 62
 43
 10
   960227.34320
 20
  1946173.65190
 30
       46.36120
 11
   960227.34320
 21
  1946173.65190
 31
       43.25300
 12
   960228.92120
 22
  1946174.20340
 32
       43.25300
 13
   960228.92120
 23
  1946174.20340
 33
       46.36120
999
CORE:CORE:F4
  0
3DFACE
  8
CORE
 62
  8
 10
   960228.92120
 20
  1946174.20340
 30
       43.25300
 11
   960227.46340
 21
  1946173.69390
 31
       43.25300
 12
   960226.47360
 22
  1946176.52590
 32
       43.25300
 13
   960227.93140
 23
  1946177.03540
 33
       43.25300
999
CORE:CORE:F5
  0
3DFACE
  8
CORE
 62
  8
 10
   960227.46340
 20
  1946173.69390
 30
       43.25300
 11
   960227.34320
 21
  1946173.65190
 31
       43.25300
 12
   960226.35340
 22
  1946176.48390
 32
       43.25300
 13
   960226.47360
 23
  1946176.52590
 33
       43.25300
999
CORE:CORE:F6
  0
3DFACE
  8
CORE
 62
 15
 10
   960228.92120
 20
  1946174.20340
 30
       46.36120
 11
   960227.93140
 21
  1946177.03540
 31
       46.36120
 12
   960226.47360
 22
  1946176.52590
 32
       46.36120
 13
   960227.46340
 23
  1946173.69390
 33
       46.36120
999
CORE:CORE:F7
  0
3DFACE
  8
CORE
 62
 15
 10
   960227.46340
 20
  1946173.69390
 30
       46.36120
 11
   960226.47360
 21
  1946176.52590
 31
       46.36120
 12
   960226.35340
 22
  1946176.48390
 32
       46.36120
 13
   960227.34320
 23
  1946173.65190
 33
       46.36120
  0
ENDSEC
  0
EOF
