  0
SECTION
  2
ENTITIES
999
DXF created from EnergyPlus
999
Program Version,EnergyPlus, Version 8.4.0-09f5359d8a, YMD=2023.08.02 14:39
999
Polygon Action,TRIANGULATE3DFACE
999
Color Scheme,Default
999
Text - True North
  0
TEXT
  8
1
  6
Continuous
 62
  3
 10
    99988.00000
 20
   100002.00000
 30
        0.10000
 40
 .25
  1
True North
 41
 0.0
  7
MONOTXT
210
0.0
220
0.0
230
1.0
999
Text - Building Title
  0
TEXT
  8
1
  6
Continuous
 62
  3
 10
    99985.00000
 20
    99998.00000
 30
        0.10000
 40
 .4
  1
Building - Building
 41
 0.0
  7
MONOTXT
210
0.0
220
0.0
230
1.0
999
North Arrow Stem
  0
3DFACE
  8
1
 62
  3
 10
    99989.00000
 20
   100002.00000
 30
        0.10000
 11
    99989.00000
 21
   100002.00000
 31
        0.00000
 12
    99989.00000
 22
    99999.00000
 32
        0.00000
 13
    99989.00000
 23
    99999.00000
 33
        0.10000
999
North Arrow Head 1
  0
3DFACE
  8
1
 62
  3
 10
    99989.00000
 20
   100002.00000
 30
        0.10000
 11
    99989.00000
 21
   100002.00000
 31
        0.00000
 12
    99988.50000
 22
   100001.13398
 32
        0.00000
 13
    99988.50000
 23
   100001.13398
 33
        0.10000
999
North Arrow Head 2
  0
3DFACE
  8
1
 62
  3
 10
    99989.00000
 20
   100002.00000
 30
        0.10000
 11
    99989.00000
 21
   100002.00000
 31
        0.00000
 12
    99989.50000
 22
   100001.13398
 32
        0.00000
 13
    99989.50000
 23
   100001.13398
 33
        0.10000
999
North Arrow Side 1
  0
3DFACE
  8
1
 62
  3
 10
    99988.50000
 20
   100003.50000
 30
        0.10000
 11
    99988.50000
 21
   100003.50000
 31
        0.00000
 12
    99988.50000
 22
   100002.50000
 32
        0.00000
 13
    99988.50000
 23
   100002.50000
 33
        0.10000
999
North Arrow Side 2
  0
3DFACE
  8
1
 62
  3
 10
    99988.50000
 20
   100003.50000
 30
        0.10000
 11
    99988.50000
 21
   100003.50000
 31
        0.00000
 12
    99989.50000
 22
   100002.50000
 32
        0.00000
 13
    99989.50000
 23
   100002.50000
 33
        0.10000
999
North Arrow Side 3
  0
3DFACE
  8
1
 62
  3
 10
    99989.50000
 20
   100003.50000
 30
        0.10000
 11
    99989.50000
 21
   100003.50000
 31
        0.00000
 12
    99989.50000
 22
   100002.50000
 32
        0.00000
 13
    99989.50000
 23
   100002.50000
 33
        0.10000
999
Zone Names
999
Zone=1:PERIM
999
Zone=2:CORE
999
PERIM:PERIM:F0
  0
3DFACE
  8
PERIM
 62
 43
 10
   960212.71500
 20
  1946141.19850
 30
       79.36120
 11
   960212.71500
 21
  1946141.19850
 31
       76.25300
 12
   960215.53420
 22
  1946142.22420
 32
       76.25300
 13
   960215.53420
 23
  1946142.22420
 33
       79.36120
999
PERIM:PERIM:F0:W0
  0
3DFACE
  8
PERIM
 62
143
 10
   960212.80900
 20
  1946141.23270
 30
       78.43510
 11
   960212.80900
 21
  1946141.23270
 31
       77.10300
 12
   960215.44030
 22
  1946142.19010
 32
       77.10300
 13
   960215.44030
 23
  1946142.19010
 33
       78.43510
999
PERIM:PERIM:F1
  0
3DFACE
  8
PERIM
 62
 43
 10
   960214.58330
 20
  1946144.83800
 30
       79.36120
 11
   960214.58330
 21
  1946144.83800
 31
       76.25300
 12
   960211.76410
 22
  1946143.81230
 32
       76.25300
 13
   960211.76410
 23
  1946143.81230
 33
       79.36120
999
PERIM:PERIM:F2
  0
3DFACE
  8
PERIM
 62
 43
 10
   960215.53420
 20
  1946142.22420
 30
       79.36120
 11
   960215.53420
 21
  1946142.22420
 31
       76.25300
 12
   960214.58330
 22
  1946144.83800
 32
       76.25300
 13
   960214.58330
 23
  1946144.83800
 33
       79.36120
999
PERIM:PERIM:F3
  0
3DFACE
  8
PERIM
 62
 43
 10
   960211.76410
 20
  1946143.81230
 30
       79.36120
 11
   960211.76410
 21
  1946143.81230
 31
       76.25300
 12
   960212.71500
 22
  1946141.19850
 32
       76.25300
 13
   960212.71500
 23
  1946141.19850
 33
       79.36120
999
PERIM:PERIM:F4
  0
3DFACE
  8
PERIM
 62
  8
 10
   960212.71500
 20
  1946141.19850
 30
       76.25300
 11
   960211.83650
 21
  1946143.61320
 31
       76.25300
 12
   960214.65570
 22
  1946144.63900
 32
       76.25300
 13
   960215.53420
 23
  1946142.22420
 33
       76.25300
999
PERIM:PERIM:F5
  0
3DFACE
  8
PERIM
 62
  8
 10
   960211.83650
 20
  1946143.61320
 30
       76.25300
 11
   960211.76410
 21
  1946143.81230
 31
       76.25300
 12
   960214.58330
 22
  1946144.83800
 32
       76.25300
 13
   960214.65570
 23
  1946144.63900
 33
       76.25300
999
PERIM:PERIM:F6
  0
3DFACE
  8
PERIM
 62
 15
 10
   960212.71500
 20
  1946141.19850
 30
       79.36120
 11
   960215.53420
 21
  1946142.22420
 31
       79.36120
 12
   960214.65570
 22
  1946144.63900
 32
       79.36120
 13
   960211.83650
 23
  1946143.61320
 33
       79.36120
999
PERIM:PERIM:F7
  0
3DFACE
  8
PERIM
 62
 15
 10
   960211.83650
 20
  1946143.61320
 30
       79.36120
 11
   960214.65570
 21
  1946144.63900
 31
       79.36120
 12
   960214.58330
 22
  1946144.83800
 32
       79.36120
 13
   960211.76410
 23
  1946143.81230
 33
       79.36120
999
CORE:CORE:F0
  0
3DFACE
  8
CORE
 62
 43
 10
   960211.76410
 20
  1946143.81230
 30
       79.36120
 11
   960211.76410
 21
  1946143.81230
 31
       76.25300
 12
   960214.58330
 22
  1946144.83800
 32
       76.25300
 13
   960214.58330
 23
  1946144.83800
 33
       79.36120
999
CORE:CORE:F1
  0
3DFACE
  8
CORE
 62
 43
 10
   960214.01170
 20
  1946146.40890
 30
       79.36120
 11
   960214.01170
 21
  1946146.40890
 31
       76.25300
 12
   960211.19250
 22
  1946145.38310
 32
       76.25300
 13
   960211.19250
 23
  1946145.38310
 33
       79.36120
999
CORE:CORE:F2
  0
3DFACE
  8
CORE
 62
 43
 10
   960214.58330
 20
  1946144.83800
 30
       79.36120
 11
   960214.58330
 21
  1946144.83800
 31
       76.25300
 12
   960214.01170
 22
  1946146.40890
 32
       76.25300
 13
   960214.01170
 23
  1946146.40890
 33
       79.36120
999
CORE:CORE:F3
  0
3DFACE
  8
CORE
 62
 43
 10
   960211.19250
 20
  1946145.38310
 30
       79.36120
 11
   960211.19250
 21
  1946145.38310
 31
       76.25300
 12
   960211.76410
 22
  1946143.81230
 32
       76.25300
 13
   960211.76410
 23
  1946143.81230
 33
       79.36120
999
CORE:CORE:F4
  0
3DFACE
  8
CORE
 62
  8
 10
   960211.76410
 20
  1946143.81230
 30
       76.25300
 11
   960211.23610
 21
  1946145.26350
 31
       76.25300
 12
   960214.05530
 22
  1946146.28920
 32
       76.25300
 13
   960214.58330
 23
  1946144.83800
 33
       76.25300
999
CORE:CORE:F5
  0
3DFACE
  8
CORE
 62
  8
 10
   960211.23610
 20
  1946145.26350
 30
       76.25300
 11
   960211.19250
 21
  1946145.38310
 31
       76.25300
 12
   960214.01170
 22
  1946146.40890
 32
       76.25300
 13
   960214.05530
 23
  1946146.28920
 33
       76.25300
999
CORE:CORE:F6
  0
3DFACE
  8
CORE
 62
 15
 10
   960211.76410
 20
  1946143.81230
 30
       79.36120
 11
   960214.58330
 21
  1946144.83800
 31
       79.36120
 12
   960214.05530
 22
  1946146.28920
 32
       79.36120
 13
   960211.23610
 23
  1946145.26350
 33
       79.36120
999
CORE:CORE:F7
  0
3DFACE
  8
CORE
 62
 15
 10
   960211.23610
 20
  1946145.26350
 30
       79.36120
 11
   960214.05530
 21
  1946146.28920
 31
       79.36120
 12
   960214.01170
 22
  1946146.40890
 32
       79.36120
 13
   960211.19250
 23
  1946145.38310
 33
       79.36120
  0
ENDSEC
  0
EOF
