  0
SECTION
  2
ENTITIES
999
DXF created from EnergyPlus
999
Program Version,EnergyPlus, Version 8.4.0-09f5359d8a, YMD=2023.08.02 14:39
999
Polygon Action,TRIANGULATE3DFACE
999
Color Scheme,Default
999
Text - True North
  0
TEXT
  8
1
  6
Continuous
 62
  3
 10
    99988.00000
 20
   100002.00000
 30
        0.10000
 40
 .25
  1
True North
 41
 0.0
  7
MONOTXT
210
0.0
220
0.0
230
1.0
999
Text - Building Title
  0
TEXT
  8
1
  6
Continuous
 62
  3
 10
    99985.00000
 20
    99998.00000
 30
        0.10000
 40
 .4
  1
Building - Building
 41
 0.0
  7
MONOTXT
210
0.0
220
0.0
230
1.0
999
North Arrow Stem
  0
3DFACE
  8
1
 62
  3
 10
    99989.00000
 20
   100002.00000
 30
        0.10000
 11
    99989.00000
 21
   100002.00000
 31
        0.00000
 12
    99989.00000
 22
    99999.00000
 32
        0.00000
 13
    99989.00000
 23
    99999.00000
 33
        0.10000
999
North Arrow Head 1
  0
3DFACE
  8
1
 62
  3
 10
    99989.00000
 20
   100002.00000
 30
        0.10000
 11
    99989.00000
 21
   100002.00000
 31
        0.00000
 12
    99988.50000
 22
   100001.13398
 32
        0.00000
 13
    99988.50000
 23
   100001.13398
 33
        0.10000
999
North Arrow Head 2
  0
3DFACE
  8
1
 62
  3
 10
    99989.00000
 20
   100002.00000
 30
        0.10000
 11
    99989.00000
 21
   100002.00000
 31
        0.00000
 12
    99989.50000
 22
   100001.13398
 32
        0.00000
 13
    99989.50000
 23
   100001.13398
 33
        0.10000
999
North Arrow Side 1
  0
3DFACE
  8
1
 62
  3
 10
    99988.50000
 20
   100003.50000
 30
        0.10000
 11
    99988.50000
 21
   100003.50000
 31
        0.00000
 12
    99988.50000
 22
   100002.50000
 32
        0.00000
 13
    99988.50000
 23
   100002.50000
 33
        0.10000
999
North Arrow Side 2
  0
3DFACE
  8
1
 62
  3
 10
    99988.50000
 20
   100003.50000
 30
        0.10000
 11
    99988.50000
 21
   100003.50000
 31
        0.00000
 12
    99989.50000
 22
   100002.50000
 32
        0.00000
 13
    99989.50000
 23
   100002.50000
 33
        0.10000
999
North Arrow Side 3
  0
3DFACE
  8
1
 62
  3
 10
    99989.50000
 20
   100003.50000
 30
        0.10000
 11
    99989.50000
 21
   100003.50000
 31
        0.00000
 12
    99989.50000
 22
   100002.50000
 32
        0.00000
 13
    99989.50000
 23
   100002.50000
 33
        0.10000
999
Zone Names
999
Zone=1:PERIM
999
Zone=2:CORE
999
Building Shading:SHADER_0
  0
3DFACE
  8
Building Shading
 62
195
 10
   961332.75000
 20
  1946604.12500
 30
       38.78920
 11
   961332.75000
 21
  1946604.12500
 31
       31.78910
 12
   961332.87500
 22
  1946602.62500
 32
       31.78910
 13
   961332.87500
 23
  1946602.62500
 33
       38.78920
999
Building Shading:Mir-SHADER_0
  0
3DFACE
  8
Building Shading
 62
195
 10
   961332.87500
 20
  1946602.62500
 30
       38.78920
 11
   961332.87500
 21
  1946602.62500
 31
       31.78910
 12
   961332.75000
 22
  1946604.12500
 32
       31.78910
 13
   961332.75000
 23
  1946604.12500
 33
       38.78920
999
PERIM:PERIM:F0
  0
3DFACE
  8
PERIM
 62
 43
 10
   961327.99920
 20
  1946603.96180
 30
       34.89740
 11
   961327.99920
 21
  1946603.96180
 31
       31.78910
 12
   961330.99770
 22
  1946604.05640
 32
       31.78910
 13
   961330.99770
 23
  1946604.05640
 33
       34.89740
999
PERIM:PERIM:F0:W0
  0
3DFACE
  8
PERIM
 62
143
 10
   961328.09910
 20
  1946603.96500
 30
       33.97120
 11
   961328.09910
 21
  1946603.96500
 31
       32.63910
 12
   961330.89770
 22
  1946604.05330
 32
       32.63910
 13
   961330.89770
 23
  1946604.05330
 33
       33.97120
999
PERIM:PERIM:F1
  0
3DFACE
  8
PERIM
 62
 43
 10
   961330.91000
 20
  1946606.83640
 30
       34.89740
 11
   961330.91000
 21
  1946606.83640
 31
       31.78910
 12
   961327.91150
 22
  1946606.74180
 32
       31.78910
 13
   961327.91150
 23
  1946606.74180
 33
       34.89740
999
PERIM:PERIM:F2
  0
3DFACE
  8
PERIM
 62
 43
 10
   961330.99770
 20
  1946604.05640
 30
       34.89740
 11
   961330.99770
 21
  1946604.05640
 31
       31.78910
 12
   961330.91000
 22
  1946606.83640
 32
       31.78910
 13
   961330.91000
 23
  1946606.83640
 33
       34.89740
999
PERIM:PERIM:F3
  0
3DFACE
  8
PERIM
 62
 43
 10
   961327.91150
 20
  1946606.74180
 30
       34.89740
 11
   961327.91150
 21
  1946606.74180
 31
       31.78910
 12
   961327.99920
 22
  1946603.96180
 32
       31.78910
 13
   961327.99920
 23
  1946603.96180
 33
       34.89740
999
PERIM:PERIM:F4
  0
3DFACE
  8
PERIM
 62
  8
 10
   961327.99920
 20
  1946603.96180
 30
       31.78910
 11
   961327.91820
 21
  1946606.53010
 31
       31.78910
 12
   961330.91670
 22
  1946606.62470
 32
       31.78910
 13
   961330.99770
 23
  1946604.05640
 33
       31.78910
999
PERIM:PERIM:F5
  0
3DFACE
  8
PERIM
 62
  8
 10
   961327.91820
 20
  1946606.53010
 30
       31.78910
 11
   961327.91150
 21
  1946606.74180
 31
       31.78910
 12
   961330.91000
 22
  1946606.83640
 32
       31.78910
 13
   961330.91670
 23
  1946606.62470
 33
       31.78910
999
PERIM:PERIM:F6
  0
3DFACE
  8
PERIM
 62
 15
 10
   961327.99920
 20
  1946603.96180
 30
       34.89740
 11
   961330.99770
 21
  1946604.05640
 31
       34.89740
 12
   961330.91670
 22
  1946606.62470
 32
       34.89740
 13
   961327.91820
 23
  1946606.53010
 33
       34.89740
999
PERIM:PERIM:F7
  0
3DFACE
  8
PERIM
 62
 15
 10
   961327.91820
 20
  1946606.53010
 30
       34.89740
 11
   961330.91670
 21
  1946606.62470
 31
       34.89740
 12
   961330.91000
 22
  1946606.83640
 32
       34.89740
 13
   961327.91150
 23
  1946606.74180
 33
       34.89740
999
CORE:CORE:F0
  0
3DFACE
  8
CORE
 62
 43
 10
   961327.91150
 20
  1946606.74180
 30
       34.89740
 11
   961327.91150
 21
  1946606.74180
 31
       31.78910
 12
   961330.91000
 22
  1946606.83640
 32
       31.78910
 13
   961330.91000
 23
  1946606.83640
 33
       34.89740
999
CORE:CORE:F1
  0
3DFACE
  8
CORE
 62
 43
 10
   961330.85730
 20
  1946608.50720
 30
       34.89740
 11
   961330.85730
 21
  1946608.50720
 31
       31.78910
 12
   961327.85880
 22
  1946608.41260
 32
       31.78910
 13
   961327.85880
 23
  1946608.41260
 33
       34.89740
999
CORE:CORE:F2
  0
3DFACE
  8
CORE
 62
 43
 10
   961330.91000
 20
  1946606.83640
 30
       34.89740
 11
   961330.91000
 21
  1946606.83640
 31
       31.78910
 12
   961330.85730
 22
  1946608.50720
 32
       31.78910
 13
   961330.85730
 23
  1946608.50720
 33
       34.89740
999
CORE:CORE:F3
  0
3DFACE
  8
CORE
 62
 43
 10
   961327.85880
 20
  1946608.41260
 30
       34.89740
 11
   961327.85880
 21
  1946608.41260
 31
       31.78910
 12
   961327.91150
 22
  1946606.74180
 32
       31.78910
 13
   961327.91150
 23
  1946606.74180
 33
       34.89740
999
CORE:CORE:F4
  0
3DFACE
  8
CORE
 62
  8
 10
   961327.91150
 20
  1946606.74180
 30
       31.78910
 11
   961327.86280
 21
  1946608.28540
 31
       31.78910
 12
   961330.86130
 22
  1946608.37990
 32
       31.78910
 13
   961330.91000
 23
  1946606.83640
 33
       31.78910
999
CORE:CORE:F5
  0
3DFACE
  8
CORE
 62
  8
 10
   961327.86280
 20
  1946608.28540
 30
       31.78910
 11
   961327.85880
 21
  1946608.41260
 31
       31.78910
 12
   961330.85730
 22
  1946608.50720
 32
       31.78910
 13
   961330.86130
 23
  1946608.37990
 33
       31.78910
999
CORE:CORE:F6
  0
3DFACE
  8
CORE
 62
 15
 10
   961327.91150
 20
  1946606.74180
 30
       34.89740
 11
   961330.91000
 21
  1946606.83640
 31
       34.89740
 12
   961330.86130
 22
  1946608.37990
 32
       34.89740
 13
   961327.86280
 23
  1946608.28540
 33
       34.89740
999
CORE:CORE:F7
  0
3DFACE
  8
CORE
 62
 15
 10
   961327.86280
 20
  1946608.28540
 30
       34.89740
 11
   961330.86130
 21
  1946608.37990
 31
       34.89740
 12
   961330.85730
 22
  1946608.50720
 32
       34.89740
 13
   961327.85880
 23
  1946608.41260
 33
       34.89740
  0
ENDSEC
  0
EOF
