  0
SECTION
  2
ENTITIES
999
DXF created from EnergyPlus
999
Program Version,EnergyPlus, Version 8.4.0-09f5359d8a, YMD=2023.08.02 14:39
999
Polygon Action,TRIANGULATE3DFACE
999
Color Scheme,Default
999
Text - True North
  0
TEXT
  8
1
  6
Continuous
 62
  3
 10
    99988.00000
 20
   100002.00000
 30
        0.10000
 40
 .25
  1
True North
 41
 0.0
  7
MONOTXT
210
0.0
220
0.0
230
1.0
999
Text - Building Title
  0
TEXT
  8
1
  6
Continuous
 62
  3
 10
    99985.00000
 20
    99998.00000
 30
        0.10000
 40
 .4
  1
Building - Building
 41
 0.0
  7
MONOTXT
210
0.0
220
0.0
230
1.0
999
North Arrow Stem
  0
3DFACE
  8
1
 62
  3
 10
    99989.00000
 20
   100002.00000
 30
        0.10000
 11
    99989.00000
 21
   100002.00000
 31
        0.00000
 12
    99989.00000
 22
    99999.00000
 32
        0.00000
 13
    99989.00000
 23
    99999.00000
 33
        0.10000
999
North Arrow Head 1
  0
3DFACE
  8
1
 62
  3
 10
    99989.00000
 20
   100002.00000
 30
        0.10000
 11
    99989.00000
 21
   100002.00000
 31
        0.00000
 12
    99988.50000
 22
   100001.13398
 32
        0.00000
 13
    99988.50000
 23
   100001.13398
 33
        0.10000
999
North Arrow Head 2
  0
3DFACE
  8
1
 62
  3
 10
    99989.00000
 20
   100002.00000
 30
        0.10000
 11
    99989.00000
 21
   100002.00000
 31
        0.00000
 12
    99989.50000
 22
   100001.13398
 32
        0.00000
 13
    99989.50000
 23
   100001.13398
 33
        0.10000
999
North Arrow Side 1
  0
3DFACE
  8
1
 62
  3
 10
    99988.50000
 20
   100003.50000
 30
        0.10000
 11
    99988.50000
 21
   100003.50000
 31
        0.00000
 12
    99988.50000
 22
   100002.50000
 32
        0.00000
 13
    99988.50000
 23
   100002.50000
 33
        0.10000
999
North Arrow Side 2
  0
3DFACE
  8
1
 62
  3
 10
    99988.50000
 20
   100003.50000
 30
        0.10000
 11
    99988.50000
 21
   100003.50000
 31
        0.00000
 12
    99989.50000
 22
   100002.50000
 32
        0.00000
 13
    99989.50000
 23
   100002.50000
 33
        0.10000
999
North Arrow Side 3
  0
3DFACE
  8
1
 62
  3
 10
    99989.50000
 20
   100003.50000
 30
        0.10000
 11
    99989.50000
 21
   100003.50000
 31
        0.00000
 12
    99989.50000
 22
   100002.50000
 32
        0.00000
 13
    99989.50000
 23
   100002.50000
 33
        0.10000
999
Zone Names
999
Zone=1:PERIM
999
Zone=2:CORE
999
Building Shading:SHADER_0
  0
3DFACE
  8
Building Shading
 62
195
 10
   959844.31250
 20
  1946518.75000
 30
       89.40830
 11
   959844.31250
 21
  1946518.75000
 31
       37.40830
 12
   959848.43750
 22
  1946499.62500
 32
       37.40830
 13
   959848.43750
 23
  1946499.62500
 33
       89.40830
999
Building Shading:Mir-SHADER_0
  0
3DFACE
  8
Building Shading
 62
195
 10
   959848.43750
 20
  1946499.62500
 30
       89.40830
 11
   959848.43750
 21
  1946499.62500
 31
       37.40830
 12
   959844.31250
 22
  1946518.75000
 32
       37.40830
 13
   959844.31250
 23
  1946518.75000
 33
       89.40830
999
Building Shading:SHADER_1
  0
3DFACE
  8
Building Shading
 62
195
 10
   959826.75000
 20
  1946562.87500
 30
       87.82830
 11
   959826.75000
 21
  1946562.87500
 31
       35.82830
 12
   959829.43750
 22
  1946551.12500
 32
       35.82830
 13
   959829.43750
 23
  1946551.12500
 33
       87.82830
999
Building Shading:Mir-SHADER_1
  0
3DFACE
  8
Building Shading
 62
195
 10
   959829.43750
 20
  1946551.12500
 30
       87.82830
 11
   959829.43750
 21
  1946551.12500
 31
       35.82830
 12
   959826.75000
 22
  1946562.87500
 32
       35.82830
 13
   959826.75000
 23
  1946562.87500
 33
       87.82830
999
Building Shading:SHADER_2
  0
3DFACE
  8
Building Shading
 62
195
 10
   959822.75000
 20
  1946589.87500
 30
       87.82830
 11
   959822.75000
 21
  1946589.87500
 31
       35.82830
 12
   959827.62500
 22
  1946568.25000
 32
       35.82830
 13
   959827.62500
 23
  1946568.25000
 33
       87.82830
999
Building Shading:Mir-SHADER_2
  0
3DFACE
  8
Building Shading
 62
195
 10
   959827.62500
 20
  1946568.25000
 30
       87.82830
 11
   959827.62500
 21
  1946568.25000
 31
       35.82830
 12
   959822.75000
 22
  1946589.87500
 32
       35.82830
 13
   959822.75000
 23
  1946589.87500
 33
       87.82830
999
PERIM:PERIM:F0
  0
3DFACE
  8
PERIM
 62
 43
 10
   959798.93940
 20
  1946543.90020
 30
       62.83170
 11
   959798.93940
 21
  1946543.90020
 31
       59.72350
 12
   959798.31160
 22
  1946546.83370
 32
       59.72350
 13
   959798.31160
 23
  1946546.83370
 33
       62.83170
999
PERIM:PERIM:F0:W0
  0
3DFACE
  8
PERIM
 62
143
 10
   959798.91850
 20
  1946543.99790
 30
       61.90560
 11
   959798.91850
 21
  1946543.99790
 31
       60.57350
 12
   959798.33250
 22
  1946546.73590
 32
       60.57350
 13
   959798.33250
 23
  1946546.73590
 33
       61.90560
999
PERIM:PERIM:F1
  0
3DFACE
  8
PERIM
 62
 43
 10
   959795.59180
 20
  1946546.25170
 30
       62.83170
 11
   959795.59180
 21
  1946546.25170
 31
       59.72350
 12
   959796.21960
 22
  1946543.31810
 32
       59.72350
 13
   959796.21960
 23
  1946543.31810
 33
       62.83170
999
PERIM:PERIM:F2
  0
3DFACE
  8
PERIM
 62
 43
 10
   959798.31160
 20
  1946546.83370
 30
       62.83170
 11
   959798.31160
 21
  1946546.83370
 31
       59.72350
 12
   959795.59180
 22
  1946546.25170
 32
       59.72350
 13
   959795.59180
 23
  1946546.25170
 33
       62.83170
999
PERIM:PERIM:F3
  0
3DFACE
  8
PERIM
 62
 43
 10
   959796.21960
 20
  1946543.31810
 30
       62.83170
 11
   959796.21960
 21
  1946543.31810
 31
       59.72350
 12
   959798.93940
 22
  1946543.90020
 32
       59.72350
 13
   959798.93940
 23
  1946543.90020
 33
       62.83170
999
PERIM:PERIM:F4
  0
3DFACE
  8
PERIM
 62
  8
 10
   959798.93940
 20
  1946543.90020
 30
       59.72350
 11
   959796.42680
 21
  1946543.36240
 31
       59.72350
 12
   959795.79890
 22
  1946546.29600
 32
       59.72350
 13
   959798.31160
 23
  1946546.83370
 33
       59.72350
999
PERIM:PERIM:F5
  0
3DFACE
  8
PERIM
 62
  8
 10
   959796.42680
 20
  1946543.36240
 30
       59.72350
 11
   959796.21960
 21
  1946543.31810
 31
       59.72350
 12
   959795.59180
 22
  1946546.25170
 32
       59.72350
 13
   959795.79890
 23
  1946546.29600
 33
       59.72350
999
PERIM:PERIM:F6
  0
3DFACE
  8
PERIM
 62
 15
 10
   959798.93940
 20
  1946543.90020
 30
       62.83170
 11
   959798.31160
 21
  1946546.83370
 31
       62.83170
 12
   959795.79890
 22
  1946546.29600
 32
       62.83170
 13
   959796.42680
 23
  1946543.36240
 33
       62.83170
999
PERIM:PERIM:F7
  0
3DFACE
  8
PERIM
 62
 15
 10
   959796.42680
 20
  1946543.36240
 30
       62.83170
 11
   959795.79890
 21
  1946546.29600
 31
       62.83170
 12
   959795.59180
 22
  1946546.25170
 32
       62.83170
 13
   959796.21960
 23
  1946543.31810
 33
       62.83170
999
CORE:CORE:F0
  0
3DFACE
  8
CORE
 62
 43
 10
   959796.21960
 20
  1946543.31810
 30
       62.83170
 11
   959796.21960
 21
  1946543.31810
 31
       59.72350
 12
   959795.59180
 22
  1946546.25170
 32
       59.72350
 13
   959795.59180
 23
  1946546.25170
 33
       62.83170
999
CORE:CORE:F1
  0
3DFACE
  8
CORE
 62
 43
 10
   959793.95720
 20
  1946545.90180
 30
       62.83170
 11
   959793.95720
 21
  1946545.90180
 31
       59.72350
 12
   959794.58510
 22
  1946542.96830
 32
       59.72350
 13
   959794.58510
 23
  1946542.96830
 33
       62.83170
999
CORE:CORE:F2
  0
3DFACE
  8
CORE
 62
 43
 10
   959795.59180
 20
  1946546.25170
 30
       62.83170
 11
   959795.59180
 21
  1946546.25170
 31
       59.72350
 12
   959793.95720
 22
  1946545.90180
 32
       59.72350
 13
   959793.95720
 23
  1946545.90180
 33
       62.83170
999
CORE:CORE:F3
  0
3DFACE
  8
CORE
 62
 43
 10
   959794.58510
 20
  1946542.96830
 30
       62.83170
 11
   959794.58510
 21
  1946542.96830
 31
       59.72350
 12
   959796.21960
 22
  1946543.31810
 32
       59.72350
 13
   959796.21960
 23
  1946543.31810
 33
       62.83170
999
CORE:CORE:F4
  0
3DFACE
  8
CORE
 62
  8
 10
   959796.21960
 20
  1946543.31810
 30
       59.72350
 11
   959794.70950
 21
  1946542.99490
 31
       59.72350
 12
   959794.08170
 22
  1946545.92850
 32
       59.72350
 13
   959795.59180
 23
  1946546.25170
 33
       59.72350
999
CORE:CORE:F5
  0
3DFACE
  8
CORE
 62
  8
 10
   959794.70950
 20
  1946542.99490
 30
       59.72350
 11
   959794.58510
 21
  1946542.96830
 31
       59.72350
 12
   959793.95720
 22
  1946545.90180
 32
       59.72350
 13
   959794.08170
 23
  1946545.92850
 33
       59.72350
999
CORE:CORE:F6
  0
3DFACE
  8
CORE
 62
 15
 10
   959796.21960
 20
  1946543.31810
 30
       62.83170
 11
   959795.59180
 21
  1946546.25170
 31
       62.83170
 12
   959794.08170
 22
  1946545.92850
 32
       62.83170
 13
   959794.70950
 23
  1946542.99490
 33
       62.83170
999
CORE:CORE:F7
  0
3DFACE
  8
CORE
 62
 15
 10
   959794.70950
 20
  1946542.99490
 30
       62.83170
 11
   959794.08170
 21
  1946545.92850
 31
       62.83170
 12
   959793.95720
 22
  1946545.90180
 32
       62.83170
 13
   959794.58510
 23
  1946542.96830
 33
       62.83170
  0
ENDSEC
  0
EOF
