  0
SECTION
  2
ENTITIES
999
DXF created from EnergyPlus
999
Program Version,EnergyPlus, Version 8.4.0-09f5359d8a, YMD=2023.08.02 14:39
999
Polygon Action,TRIANGULATE3DFACE
999
Color Scheme,Default
999
Text - True North
  0
TEXT
  8
1
  6
Continuous
 62
  3
 10
    99988.00000
 20
   100002.00000
 30
        0.10000
 40
 .25
  1
True North
 41
 0.0
  7
MONOTXT
210
0.0
220
0.0
230
1.0
999
Text - Building Title
  0
TEXT
  8
1
  6
Continuous
 62
  3
 10
    99985.00000
 20
    99998.00000
 30
        0.10000
 40
 .4
  1
Building - Building
 41
 0.0
  7
MONOTXT
210
0.0
220
0.0
230
1.0
999
North Arrow Stem
  0
3DFACE
  8
1
 62
  3
 10
    99989.00000
 20
   100002.00000
 30
        0.10000
 11
    99989.00000
 21
   100002.00000
 31
        0.00000
 12
    99989.00000
 22
    99999.00000
 32
        0.00000
 13
    99989.00000
 23
    99999.00000
 33
        0.10000
999
North Arrow Head 1
  0
3DFACE
  8
1
 62
  3
 10
    99989.00000
 20
   100002.00000
 30
        0.10000
 11
    99989.00000
 21
   100002.00000
 31
        0.00000
 12
    99988.50000
 22
   100001.13398
 32
        0.00000
 13
    99988.50000
 23
   100001.13398
 33
        0.10000
999
North Arrow Head 2
  0
3DFACE
  8
1
 62
  3
 10
    99989.00000
 20
   100002.00000
 30
        0.10000
 11
    99989.00000
 21
   100002.00000
 31
        0.00000
 12
    99989.50000
 22
   100001.13398
 32
        0.00000
 13
    99989.50000
 23
   100001.13398
 33
        0.10000
999
North Arrow Side 1
  0
3DFACE
  8
1
 62
  3
 10
    99988.50000
 20
   100003.50000
 30
        0.10000
 11
    99988.50000
 21
   100003.50000
 31
        0.00000
 12
    99988.50000
 22
   100002.50000
 32
        0.00000
 13
    99988.50000
 23
   100002.50000
 33
        0.10000
999
North Arrow Side 2
  0
3DFACE
  8
1
 62
  3
 10
    99988.50000
 20
   100003.50000
 30
        0.10000
 11
    99988.50000
 21
   100003.50000
 31
        0.00000
 12
    99989.50000
 22
   100002.50000
 32
        0.00000
 13
    99989.50000
 23
   100002.50000
 33
        0.10000
999
North Arrow Side 3
  0
3DFACE
  8
1
 62
  3
 10
    99989.50000
 20
   100003.50000
 30
        0.10000
 11
    99989.50000
 21
   100003.50000
 31
        0.00000
 12
    99989.50000
 22
   100002.50000
 32
        0.00000
 13
    99989.50000
 23
   100002.50000
 33
        0.10000
999
Zone Names
999
Zone=1:PERIM
999
Zone=2:CORE
999
Building Shading:SHADER_0
  0
3DFACE
  8
Building Shading
 62
195
 10
   960212.50000
 20
  1946188.00000
 30
       79.25300
 11
   960212.50000
 21
  1946188.00000
 31
       40.25300
 12
   960209.50000
 22
  1946186.87500
 32
       40.25300
 13
   960209.50000
 23
  1946186.87500
 33
       79.25300
999
Building Shading:Mir-SHADER_0
  0
3DFACE
  8
Building Shading
 62
195
 10
   960209.50000
 20
  1946186.87500
 30
       79.25300
 11
   960209.50000
 21
  1946186.87500
 31
       40.25300
 12
   960212.50000
 22
  1946188.00000
 32
       40.25300
 13
   960212.50000
 23
  1946188.00000
 33
       79.25300
999
Building Shading:SHADER_1
  0
3DFACE
  8
Building Shading
 62
195
 10
   960214.62500
 20
  1946188.50000
 30
       69.50300
 11
   960214.62500
 21
  1946188.50000
 31
       59.75300
 12
   960213.31250
 22
  1946188.00000
 32
       59.75300
 13
   960213.31250
 23
  1946188.00000
 33
       69.50300
999
Building Shading:Mir-SHADER_1
  0
3DFACE
  8
Building Shading
 62
195
 10
   960213.31250
 20
  1946188.00000
 30
       69.50300
 11
   960213.31250
 21
  1946188.00000
 31
       59.75300
 12
   960214.62500
 22
  1946188.50000
 32
       59.75300
 13
   960214.62500
 23
  1946188.50000
 33
       69.50300
999
Building Shading:SHADER_2
  0
3DFACE
  8
Building Shading
 62
195
 10
   960213.31250
 20
  1946188.00000
 30
       69.50300
 11
   960212.62500
 21
  1946187.62500
 31
       79.25300
 12
   960215.25000
 22
  1946188.75000
 32
       79.25300
 13
   960214.62500
 23
  1946188.50000
 33
       69.50300
999
Building Shading:Mir-SHADER_2
  0
3DFACE
  8
Building Shading
 62
195
 10
   960214.62500
 20
  1946188.50000
 30
       69.50300
 11
   960215.25000
 21
  1946188.75000
 31
       79.25300
 12
   960212.62500
 22
  1946187.62500
 32
       79.25300
 13
   960213.31250
 23
  1946188.00000
 33
       69.50300
999
Building Shading:SHADER_3
  0
3DFACE
  8
Building Shading
 62
195
 10
   960214.62500
 20
  1946188.50000
 30
       69.50300
 11
   960214.93750
 21
  1946188.62500
 31
       69.50300
 12
   960214.93750
 22
  1946188.62500
 32
       59.75300
 13
   960214.62500
 23
  1946188.50000
 33
       59.75300
999
Building Shading:Mir-SHADER_3
  0
3DFACE
  8
Building Shading
 62
195
 10
   960214.62500
 20
  1946188.50000
 30
       59.75300
 11
   960214.93750
 21
  1946188.62500
 31
       59.75300
 12
   960214.93750
 22
  1946188.62500
 32
       69.50300
 13
   960214.62500
 23
  1946188.50000
 33
       69.50300
999
Building Shading:SHADER_4
  0
3DFACE
  8
Building Shading
 62
195
 10
   960214.93750
 20
  1946188.62500
 30
       69.50300
 11
   960214.62500
 21
  1946188.50000
 31
       69.50300
 12
   960215.25000
 22
  1946188.75000
 32
       79.25300
 13
   960215.25000
 23
  1946188.75000
 33
       79.25300
999
Building Shading:Mir-SHADER_4
  0
3DFACE
  8
Building Shading
 62
195
 10
   960215.25000
 20
  1946188.75000
 30
       79.25300
 11
   960214.62500
 21
  1946188.50000
 31
       69.50300
 12
   960214.93750
 22
  1946188.62500
 32
       69.50300
 13
   960214.93750
 23
  1946188.62500
 33
       69.50300
999
PERIM:PERIM:F0
  0
3DFACE
  8
PERIM
 62
 43
 10
   960214.28720
 20
  1946191.39110
 30
       67.36120
 11
   960214.28720
 21
  1946191.39110
 31
       64.25300
 12
   960215.32670
 22
  1946188.57690
 32
       64.25300
 13
   960215.32670
 23
  1946188.57690
 33
       67.36120
999
PERIM:PERIM:F0:W0
  0
3DFACE
  8
PERIM
 62
143
 10
   960214.32190
 20
  1946191.29730
 30
       66.43510
 11
   960214.32190
 21
  1946191.29730
 31
       65.10300
 12
   960215.29200
 22
  1946188.67070
 32
       65.10300
 13
   960215.29200
 23
  1946188.67070
 33
       66.43510
999
PERIM:PERIM:F1
  0
3DFACE
  8
PERIM
 62
 43
 10
   960217.93580
 20
  1946189.54070
 30
       67.36120
 11
   960217.93580
 21
  1946189.54070
 31
       64.25300
 12
   960216.89630
 22
  1946192.35480
 32
       64.25300
 13
   960216.89630
 23
  1946192.35480
 33
       67.36120
999
PERIM:PERIM:F2
  0
3DFACE
  8
PERIM
 62
 43
 10
   960215.32670
 20
  1946188.57690
 30
       67.36120
 11
   960215.32670
 21
  1946188.57690
 31
       64.25300
 12
   960217.93580
 22
  1946189.54070
 32
       64.25300
 13
   960217.93580
 23
  1946189.54070
 33
       67.36120
999
PERIM:PERIM:F3
  0
3DFACE
  8
PERIM
 62
 43
 10
   960216.89630
 20
  1946192.35480
 30
       67.36120
 11
   960216.89630
 21
  1946192.35480
 31
       64.25300
 12
   960214.28720
 22
  1946191.39110
 32
       64.25300
 13
   960214.28720
 23
  1946191.39110
 33
       67.36120
999
PERIM:PERIM:F4
  0
3DFACE
  8
PERIM
 62
  8
 10
   960214.28720
 20
  1946191.39110
 30
       64.25300
 11
   960216.69760
 21
  1946192.28140
 31
       64.25300
 12
   960217.73710
 22
  1946189.46730
 32
       64.25300
 13
   960215.32670
 23
  1946188.57690
 33
       64.25300
999
PERIM:PERIM:F5
  0
3DFACE
  8
PERIM
 62
  8
 10
   960216.69760
 20
  1946192.28140
 30
       64.25300
 11
   960216.89630
 21
  1946192.35480
 31
       64.25300
 12
   960217.93580
 22
  1946189.54070
 32
       64.25300
 13
   960217.73710
 23
  1946189.46730
 33
       64.25300
999
PERIM:PERIM:F6
  0
3DFACE
  8
PERIM
 62
 15
 10
   960214.28720
 20
  1946191.39110
 30
       67.36120
 11
   960215.32670
 21
  1946188.57690
 31
       67.36120
 12
   960217.73710
 22
  1946189.46730
 32
       67.36120
 13
   960216.69760
 23
  1946192.28140
 33
       67.36120
999
PERIM:PERIM:F7
  0
3DFACE
  8
PERIM
 62
 15
 10
   960216.69760
 20
  1946192.28140
 30
       67.36120
 11
   960217.73710
 21
  1946189.46730
 31
       67.36120
 12
   960217.93580
 22
  1946189.54070
 32
       67.36120
 13
   960216.89630
 23
  1946192.35480
 33
       67.36120
999
CORE:CORE:F0
  0
3DFACE
  8
CORE
 62
 43
 10
   960216.89630
 20
  1946192.35480
 30
       67.36120
 11
   960216.89630
 21
  1946192.35480
 31
       64.25300
 12
   960217.93580
 22
  1946189.54070
 32
       64.25300
 13
   960217.93580
 23
  1946189.54070
 33
       67.36120
999
CORE:CORE:F1
  0
3DFACE
  8
CORE
 62
 43
 10
   960219.50380
 20
  1946190.11980
 30
       67.36120
 11
   960219.50380
 21
  1946190.11980
 31
       64.25300
 12
   960218.46430
 22
  1946192.93400
 32
       64.25300
 13
   960218.46430
 23
  1946192.93400
 33
       67.36120
999
CORE:CORE:F2
  0
3DFACE
  8
CORE
 62
 43
 10
   960217.93580
 20
  1946189.54070
 30
       67.36120
 11
   960217.93580
 21
  1946189.54070
 31
       64.25300
 12
   960219.50380
 22
  1946190.11980
 32
       64.25300
 13
   960219.50380
 23
  1946190.11980
 33
       67.36120
999
CORE:CORE:F3
  0
3DFACE
  8
CORE
 62
 43
 10
   960218.46430
 20
  1946192.93400
 30
       67.36120
 11
   960218.46430
 21
  1946192.93400
 31
       64.25300
 12
   960216.89630
 22
  1946192.35480
 32
       64.25300
 13
   960216.89630
 23
  1946192.35480
 33
       67.36120
999
CORE:CORE:F4
  0
3DFACE
  8
CORE
 62
  8
 10
   960216.89630
 20
  1946192.35480
 30
       64.25300
 11
   960218.34490
 21
  1946192.88990
 31
       64.25300
 12
   960219.38440
 22
  1946190.07570
 32
       64.25300
 13
   960217.93580
 23
  1946189.54070
 33
       64.25300
999
CORE:CORE:F5
  0
3DFACE
  8
CORE
 62
  8
 10
   960218.34490
 20
  1946192.88990
 30
       64.25300
 11
   960218.46430
 21
  1946192.93400
 31
       64.25300
 12
   960219.50380
 22
  1946190.11980
 32
       64.25300
 13
   960219.38440
 23
  1946190.07570
 33
       64.25300
999
CORE:CORE:F6
  0
3DFACE
  8
CORE
 62
 15
 10
   960216.89630
 20
  1946192.35480
 30
       67.36120
 11
   960217.93580
 21
  1946189.54070
 31
       67.36120
 12
   960219.38440
 22
  1946190.07570
 32
       67.36120
 13
   960218.34490
 23
  1946192.88990
 33
       67.36120
999
CORE:CORE:F7
  0
3DFACE
  8
CORE
 62
 15
 10
   960218.34490
 20
  1946192.88990
 30
       67.36120
 11
   960219.38440
 21
  1946190.07570
 31
       67.36120
 12
   960219.50380
 22
  1946190.11980
 32
       67.36120
 13
   960218.46430
 23
  1946192.93400
 33
       67.36120
  0
ENDSEC
  0
EOF
