  0
SECTION
  2
ENTITIES
999
DXF created from EnergyPlus
999
Program Version,EnergyPlus, Version 8.4.0-09f5359d8a, YMD=2023.08.02 14:39
999
Polygon Action,TRIANGULATE3DFACE
999
Color Scheme,Default
999
Text - True North
  0
TEXT
  8
1
  6
Continuous
 62
  3
 10
    99988.00000
 20
   100002.00000
 30
        0.10000
 40
 .25
  1
True North
 41
 0.0
  7
MONOTXT
210
0.0
220
0.0
230
1.0
999
Text - Building Title
  0
TEXT
  8
1
  6
Continuous
 62
  3
 10
    99985.00000
 20
    99998.00000
 30
        0.10000
 40
 .4
  1
Building - Building
 41
 0.0
  7
MONOTXT
210
0.0
220
0.0
230
1.0
999
North Arrow Stem
  0
3DFACE
  8
1
 62
  3
 10
    99989.00000
 20
   100002.00000
 30
        0.10000
 11
    99989.00000
 21
   100002.00000
 31
        0.00000
 12
    99989.00000
 22
    99999.00000
 32
        0.00000
 13
    99989.00000
 23
    99999.00000
 33
        0.10000
999
North Arrow Head 1
  0
3DFACE
  8
1
 62
  3
 10
    99989.00000
 20
   100002.00000
 30
        0.10000
 11
    99989.00000
 21
   100002.00000
 31
        0.00000
 12
    99988.50000
 22
   100001.13398
 32
        0.00000
 13
    99988.50000
 23
   100001.13398
 33
        0.10000
999
North Arrow Head 2
  0
3DFACE
  8
1
 62
  3
 10
    99989.00000
 20
   100002.00000
 30
        0.10000
 11
    99989.00000
 21
   100002.00000
 31
        0.00000
 12
    99989.50000
 22
   100001.13398
 32
        0.00000
 13
    99989.50000
 23
   100001.13398
 33
        0.10000
999
North Arrow Side 1
  0
3DFACE
  8
1
 62
  3
 10
    99988.50000
 20
   100003.50000
 30
        0.10000
 11
    99988.50000
 21
   100003.50000
 31
        0.00000
 12
    99988.50000
 22
   100002.50000
 32
        0.00000
 13
    99988.50000
 23
   100002.50000
 33
        0.10000
999
North Arrow Side 2
  0
3DFACE
  8
1
 62
  3
 10
    99988.50000
 20
   100003.50000
 30
        0.10000
 11
    99988.50000
 21
   100003.50000
 31
        0.00000
 12
    99989.50000
 22
   100002.50000
 32
        0.00000
 13
    99989.50000
 23
   100002.50000
 33
        0.10000
999
North Arrow Side 3
  0
3DFACE
  8
1
 62
  3
 10
    99989.50000
 20
   100003.50000
 30
        0.10000
 11
    99989.50000
 21
   100003.50000
 31
        0.00000
 12
    99989.50000
 22
   100002.50000
 32
        0.00000
 13
    99989.50000
 23
   100002.50000
 33
        0.10000
999
Zone Names
999
Zone=1:PERIM
999
Zone=2:CORE
999
Building Shading:SHADER_0
  0
3DFACE
  8
Building Shading
 62
195
 10
   960581.43750
 20
  1945627.25000
 30
       55.36090
 11
   960581.43750
 21
  1945627.25000
 31
       20.36090
 12
   960603.31250
 22
  1945636.62500
 32
       20.36090
 13
   960603.31250
 23
  1945636.62500
 33
       55.36090
999
Building Shading:Mir-SHADER_0
  0
3DFACE
  8
Building Shading
 62
195
 10
   960603.31250
 20
  1945636.62500
 30
       55.36090
 11
   960603.31250
 21
  1945636.62500
 31
       20.36090
 12
   960581.43750
 22
  1945627.25000
 32
       20.36090
 13
   960581.43750
 23
  1945627.25000
 33
       55.36090
999
Building Shading:SHADER_1
  0
3DFACE
  8
Building Shading
 62
195
 10
   960549.68750
 20
  1945637.75000
 30
       55.36090
 11
   960549.68750
 21
  1945637.75000
 31
       20.36090
 12
   960550.56250
 22
  1945635.62500
 32
       20.36090
 13
   960550.56250
 23
  1945635.62500
 33
       55.36090
999
Building Shading:Mir-SHADER_1
  0
3DFACE
  8
Building Shading
 62
195
 10
   960550.56250
 20
  1945635.62500
 30
       55.36090
 11
   960550.56250
 21
  1945635.62500
 31
       20.36090
 12
   960549.68750
 22
  1945637.75000
 32
       20.36090
 13
   960549.68750
 23
  1945637.75000
 33
       55.36090
999
Building Shading:SHADER_2
  0
3DFACE
  8
Building Shading
 62
195
 10
   960525.68750
 20
  1945589.50000
 30
       32.29400
 11
   960525.68750
 21
  1945589.50000
 31
       20.29400
 12
   960534.50000
 22
  1945593.25000
 32
       20.29400
 13
   960534.50000
 23
  1945593.25000
 33
       32.29400
999
Building Shading:Mir-SHADER_2
  0
3DFACE
  8
Building Shading
 62
195
 10
   960534.50000
 20
  1945593.25000
 30
       32.29400
 11
   960534.50000
 21
  1945593.25000
 31
       20.29400
 12
   960525.68750
 22
  1945589.50000
 32
       20.29400
 13
   960525.68750
 23
  1945589.50000
 33
       32.29400
999
Building Shading:SHADER_3
  0
3DFACE
  8
Building Shading
 62
195
 10
   960513.18750
 20
  1945583.50000
 30
       35.40190
 11
   960513.18750
 21
  1945583.50000
 31
       20.40190
 12
   960520.43750
 22
  1945590.50000
 32
       20.40190
 13
   960520.43750
 23
  1945590.50000
 33
       35.40190
999
Building Shading:Mir-SHADER_3
  0
3DFACE
  8
Building Shading
 62
195
 10
   960520.43750
 20
  1945590.50000
 30
       35.40190
 11
   960520.43750
 21
  1945590.50000
 31
       20.40190
 12
   960513.18750
 22
  1945583.50000
 32
       20.40190
 13
   960513.18750
 23
  1945583.50000
 33
       35.40190
999
PERIM:PERIM:F0
  0
3DFACE
  8
PERIM
 62
 43
 10
   960528.97070
 20
  1945581.77440
 30
       32.22950
 11
   960528.97070
 21
  1945581.77440
 31
       29.12130
 12
   960526.21610
 22
  1945580.58590
 32
       29.12130
 13
   960526.21610
 23
  1945580.58590
 33
       32.22950
999
PERIM:PERIM:F0:W0
  0
3DFACE
  8
PERIM
 62
143
 10
   960528.87880
 20
  1945581.73480
 30
       31.30340
 11
   960528.87880
 21
  1945581.73480
 31
       29.97130
 12
   960526.30790
 22
  1945580.62560
 32
       29.97130
 13
   960526.30790
 23
  1945580.62560
 33
       31.30340
999
PERIM:PERIM:F1
  0
3DFACE
  8
PERIM
 62
 43
 10
   960527.31800
 20
  1945578.03210
 30
       32.22950
 11
   960527.31800
 21
  1945578.03210
 31
       29.12130
 12
   960530.07250
 22
  1945579.22060
 32
       29.12130
 13
   960530.07250
 23
  1945579.22060
 33
       32.22950
999
PERIM:PERIM:F2
  0
3DFACE
  8
PERIM
 62
 43
 10
   960526.21610
 20
  1945580.58590
 30
       32.22950
 11
   960526.21610
 21
  1945580.58590
 31
       29.12130
 12
   960527.31800
 22
  1945578.03210
 32
       29.12130
 13
   960527.31800
 23
  1945578.03210
 33
       32.22950
999
PERIM:PERIM:F3
  0
3DFACE
  8
PERIM
 62
 43
 10
   960530.07250
 20
  1945579.22060
 30
       32.22950
 11
   960530.07250
 21
  1945579.22060
 31
       29.12130
 12
   960528.97070
 22
  1945581.77440
 32
       29.12130
 13
   960528.97070
 23
  1945581.77440
 33
       32.22950
999
PERIM:PERIM:F4
  0
3DFACE
  8
PERIM
 62
  8
 10
   960528.97070
 20
  1945581.77440
 30
       29.12130
 11
   960529.98860
 21
  1945579.41510
 31
       29.12130
 12
   960527.23410
 22
  1945578.22660
 32
       29.12130
 13
   960526.21610
 23
  1945580.58590
 33
       29.12130
999
PERIM:PERIM:F5
  0
3DFACE
  8
PERIM
 62
  8
 10
   960529.98860
 20
  1945579.41510
 30
       29.12130
 11
   960530.07250
 21
  1945579.22060
 31
       29.12130
 12
   960527.31800
 22
  1945578.03210
 32
       29.12130
 13
   960527.23410
 23
  1945578.22660
 33
       29.12130
999
PERIM:PERIM:F6
  0
3DFACE
  8
PERIM
 62
 15
 10
   960528.97070
 20
  1945581.77440
 30
       32.22950
 11
   960526.21610
 21
  1945580.58590
 31
       32.22950
 12
   960527.23410
 22
  1945578.22660
 32
       32.22950
 13
   960529.98860
 23
  1945579.41510
 33
       32.22950
999
PERIM:PERIM:F7
  0
3DFACE
  8
PERIM
 62
 15
 10
   960529.98860
 20
  1945579.41510
 30
       32.22950
 11
   960527.23410
 21
  1945578.22660
 31
       32.22950
 12
   960527.31800
 22
  1945578.03210
 32
       32.22950
 13
   960530.07250
 23
  1945579.22060
 33
       32.22950
999
CORE:CORE:F0
  0
3DFACE
  8
CORE
 62
 43
 10
   960530.07250
 20
  1945579.22060
 30
       32.22950
 11
   960530.07250
 21
  1945579.22060
 31
       29.12130
 12
   960527.31800
 22
  1945578.03210
 32
       29.12130
 13
   960527.31800
 23
  1945578.03210
 33
       32.22950
999
CORE:CORE:F1
  0
3DFACE
  8
CORE
 62
 43
 10
   960527.98020
 20
  1945576.49730
 30
       32.22950
 11
   960527.98020
 21
  1945576.49730
 31
       29.12130
 12
   960530.73480
 22
  1945577.68580
 32
       29.12130
 13
   960530.73480
 23
  1945577.68580
 33
       32.22950
999
CORE:CORE:F2
  0
3DFACE
  8
CORE
 62
 43
 10
   960527.31800
 20
  1945578.03210
 30
       32.22950
 11
   960527.31800
 21
  1945578.03210
 31
       29.12130
 12
   960527.98020
 22
  1945576.49730
 32
       29.12130
 13
   960527.98020
 23
  1945576.49730
 33
       32.22950
999
CORE:CORE:F3
  0
3DFACE
  8
CORE
 62
 43
 10
   960530.73480
 20
  1945577.68580
 30
       32.22950
 11
   960530.73480
 21
  1945577.68580
 31
       29.12130
 12
   960530.07250
 22
  1945579.22060
 32
       29.12130
 13
   960530.07250
 23
  1945579.22060
 33
       32.22950
999
CORE:CORE:F4
  0
3DFACE
  8
CORE
 62
  8
 10
   960530.07250
 20
  1945579.22060
 30
       29.12130
 11
   960530.68430
 21
  1945577.80270
 31
       29.12130
 12
   960527.92980
 22
  1945576.61420
 32
       29.12130
 13
   960527.31800
 23
  1945578.03210
 33
       29.12130
999
CORE:CORE:F5
  0
3DFACE
  8
CORE
 62
  8
 10
   960530.68430
 20
  1945577.80270
 30
       29.12130
 11
   960530.73480
 21
  1945577.68580
 31
       29.12130
 12
   960527.98020
 22
  1945576.49730
 32
       29.12130
 13
   960527.92980
 23
  1945576.61420
 33
       29.12130
999
CORE:CORE:F6
  0
3DFACE
  8
CORE
 62
 15
 10
   960530.07250
 20
  1945579.22060
 30
       32.22950
 11
   960527.31800
 21
  1945578.03210
 31
       32.22950
 12
   960527.92980
 22
  1945576.61420
 32
       32.22950
 13
   960530.68430
 23
  1945577.80270
 33
       32.22950
999
CORE:CORE:F7
  0
3DFACE
  8
CORE
 62
 15
 10
   960530.68430
 20
  1945577.80270
 30
       32.22950
 11
   960527.92980
 21
  1945576.61420
 31
       32.22950
 12
   960527.98020
 22
  1945576.49730
 32
       32.22950
 13
   960530.73480
 23
  1945577.68580
 33
       32.22950
  0
ENDSEC
  0
EOF
