  0
SECTION
  2
ENTITIES
999
DXF created from EnergyPlus
999
Program Version,EnergyPlus, Version 8.4.0-09f5359d8a, YMD=2023.08.02 14:39
999
Polygon Action,TRIANGULATE3DFACE
999
Color Scheme,Default
999
Text - True North
  0
TEXT
  8
1
  6
Continuous
 62
  3
 10
    99988.00000
 20
   100002.00000
 30
        0.10000
 40
 .25
  1
True North
 41
 0.0
  7
MONOTXT
210
0.0
220
0.0
230
1.0
999
Text - Building Title
  0
TEXT
  8
1
  6
Continuous
 62
  3
 10
    99985.00000
 20
    99998.00000
 30
        0.10000
 40
 .4
  1
Building - Building
 41
 0.0
  7
MONOTXT
210
0.0
220
0.0
230
1.0
999
North Arrow Stem
  0
3DFACE
  8
1
 62
  3
 10
    99989.00000
 20
   100002.00000
 30
        0.10000
 11
    99989.00000
 21
   100002.00000
 31
        0.00000
 12
    99989.00000
 22
    99999.00000
 32
        0.00000
 13
    99989.00000
 23
    99999.00000
 33
        0.10000
999
North Arrow Head 1
  0
3DFACE
  8
1
 62
  3
 10
    99989.00000
 20
   100002.00000
 30
        0.10000
 11
    99989.00000
 21
   100002.00000
 31
        0.00000
 12
    99988.50000
 22
   100001.13398
 32
        0.00000
 13
    99988.50000
 23
   100001.13398
 33
        0.10000
999
North Arrow Head 2
  0
3DFACE
  8
1
 62
  3
 10
    99989.00000
 20
   100002.00000
 30
        0.10000
 11
    99989.00000
 21
   100002.00000
 31
        0.00000
 12
    99989.50000
 22
   100001.13398
 32
        0.00000
 13
    99989.50000
 23
   100001.13398
 33
        0.10000
999
North Arrow Side 1
  0
3DFACE
  8
1
 62
  3
 10
    99988.50000
 20
   100003.50000
 30
        0.10000
 11
    99988.50000
 21
   100003.50000
 31
        0.00000
 12
    99988.50000
 22
   100002.50000
 32
        0.00000
 13
    99988.50000
 23
   100002.50000
 33
        0.10000
999
North Arrow Side 2
  0
3DFACE
  8
1
 62
  3
 10
    99988.50000
 20
   100003.50000
 30
        0.10000
 11
    99988.50000
 21
   100003.50000
 31
        0.00000
 12
    99989.50000
 22
   100002.50000
 32
        0.00000
 13
    99989.50000
 23
   100002.50000
 33
        0.10000
999
North Arrow Side 3
  0
3DFACE
  8
1
 62
  3
 10
    99989.50000
 20
   100003.50000
 30
        0.10000
 11
    99989.50000
 21
   100003.50000
 31
        0.00000
 12
    99989.50000
 22
   100002.50000
 32
        0.00000
 13
    99989.50000
 23
   100002.50000
 33
        0.10000
999
Zone Names
999
Zone=1:PERIM
999
Zone=2:CORE
999
Building Shading:SHADER_0
  0
3DFACE
  8
Building Shading
 62
195
 10
   959790.18750
 20
  1946237.62500
 30
       98.60770
 11
   959790.18750
 21
  1946237.62500
 31
       52.60770
 12
   959840.62500
 22
  1946256.37500
 32
       52.60770
 13
   959840.62500
 23
  1946256.37500
 33
       98.60770
999
Building Shading:Mir-SHADER_0
  0
3DFACE
  8
Building Shading
 62
195
 10
   959840.62500
 20
  1946256.37500
 30
       98.60770
 11
   959840.62500
 21
  1946256.37500
 31
       52.60770
 12
   959790.18750
 22
  1946237.62500
 32
       52.60770
 13
   959790.18750
 23
  1946237.62500
 33
       98.60770
999
Building Shading:SHADER_1
  0
3DFACE
  8
Building Shading
 62
195
 10
   959843.06250
 20
  1946214.37500
 30
       76.68160
 11
   959843.06250
 21
  1946214.37500
 31
       54.68160
 12
   959838.31250
 22
  1946227.62500
 32
       54.68160
 13
   959838.31250
 23
  1946227.62500
 33
       76.68160
999
Building Shading:Mir-SHADER_1
  0
3DFACE
  8
Building Shading
 62
195
 10
   959838.31250
 20
  1946227.62500
 30
       76.68160
 11
   959838.31250
 21
  1946227.62500
 31
       54.68160
 12
   959843.06250
 22
  1946214.37500
 32
       54.68160
 13
   959843.06250
 23
  1946214.37500
 33
       76.68160
999
Building Shading:SHADER_2
  0
3DFACE
  8
Building Shading
 62
195
 10
   959842.50000
 20
  1946211.50000
 30
       76.68160
 11
   959842.50000
 21
  1946211.50000
 31
       54.68160
 12
   959841.68750
 22
  1946213.87500
 32
       54.68160
 13
   959841.68750
 23
  1946213.87500
 33
       76.68160
999
Building Shading:Mir-SHADER_2
  0
3DFACE
  8
Building Shading
 62
195
 10
   959841.68750
 20
  1946213.87500
 30
       76.68160
 11
   959841.68750
 21
  1946213.87500
 31
       54.68160
 12
   959842.50000
 22
  1946211.50000
 32
       54.68160
 13
   959842.50000
 23
  1946211.50000
 33
       76.68160
999
Building Shading:SHADER_3
  0
3DFACE
  8
Building Shading
 62
195
 10
   959848.87500
 20
  1946211.75000
 30
       66.88110
 11
   959848.87500
 21
  1946211.75000
 31
       54.88110
 12
   959836.87500
 22
  1946207.50000
 32
       54.88110
 13
   959836.87500
 23
  1946207.50000
 33
       66.88110
999
Building Shading:Mir-SHADER_3
  0
3DFACE
  8
Building Shading
 62
195
 10
   959836.87500
 20
  1946207.50000
 30
       66.88110
 11
   959836.87500
 21
  1946207.50000
 31
       54.88110
 12
   959848.87500
 22
  1946211.75000
 32
       54.88110
 13
   959848.87500
 23
  1946211.75000
 33
       66.88110
999
PERIM:PERIM:F0
  0
3DFACE
  8
PERIM
 62
 43
 10
   959847.27740
 20
  1946225.30450
 30
       57.36450
 11
   959847.27740
 21
  1946225.30450
 31
       54.25620
 12
   959848.31030
 22
  1946222.48790
 32
       54.25620
 13
   959848.31030
 23
  1946222.48790
 33
       57.36450
999
PERIM:PERIM:F0:W0
  0
3DFACE
  8
PERIM
 62
143
 10
   959847.31180
 20
  1946225.21060
 30
       56.43830
 11
   959847.31180
 21
  1946225.21060
 31
       55.10620
 12
   959848.27590
 22
  1946222.58180
 32
       55.10620
 13
   959848.27590
 23
  1946222.58180
 33
       56.43830
999
PERIM:PERIM:F1
  0
3DFACE
  8
PERIM
 62
 43
 10
   959850.92160
 20
  1946223.44560
 30
       57.36450
 11
   959850.92160
 21
  1946223.44560
 31
       54.25620
 12
   959849.88870
 22
  1946226.26210
 32
       54.25620
 13
   959849.88870
 23
  1946226.26210
 33
       57.36450
999
PERIM:PERIM:F2
  0
3DFACE
  8
PERIM
 62
 43
 10
   959848.31030
 20
  1946222.48790
 30
       57.36450
 11
   959848.31030
 21
  1946222.48790
 31
       54.25620
 12
   959850.92160
 22
  1946223.44560
 32
       54.25620
 13
   959850.92160
 23
  1946223.44560
 33
       57.36450
999
PERIM:PERIM:F3
  0
3DFACE
  8
PERIM
 62
 43
 10
   959849.88870
 20
  1946226.26210
 30
       57.36450
 11
   959849.88870
 21
  1946226.26210
 31
       54.25620
 12
   959847.27740
 22
  1946225.30450
 32
       54.25620
 13
   959847.27740
 23
  1946225.30450
 33
       57.36450
999
PERIM:PERIM:F4
  0
3DFACE
  8
PERIM
 62
  8
 10
   959847.27740
 20
  1946225.30450
 30
       54.25620
 11
   959849.68980
 21
  1946226.18920
 31
       54.25620
 12
   959850.72280
 22
  1946223.37260
 32
       54.25620
 13
   959848.31030
 23
  1946222.48790
 33
       54.25620
999
PERIM:PERIM:F5
  0
3DFACE
  8
PERIM
 62
  8
 10
   959849.68980
 20
  1946226.18920
 30
       54.25620
 11
   959849.88870
 21
  1946226.26210
 31
       54.25620
 12
   959850.92160
 22
  1946223.44560
 32
       54.25620
 13
   959850.72280
 23
  1946223.37260
 33
       54.25620
999
PERIM:PERIM:F6
  0
3DFACE
  8
PERIM
 62
 15
 10
   959847.27740
 20
  1946225.30450
 30
       57.36450
 11
   959848.31030
 21
  1946222.48790
 31
       57.36450
 12
   959850.72280
 22
  1946223.37260
 32
       57.36450
 13
   959849.68980
 23
  1946226.18920
 33
       57.36450
999
PERIM:PERIM:F7
  0
3DFACE
  8
PERIM
 62
 15
 10
   959849.68980
 20
  1946226.18920
 30
       57.36450
 11
   959850.72280
 21
  1946223.37260
 31
       57.36450
 12
   959850.92160
 22
  1946223.44560
 32
       57.36450
 13
   959849.88870
 23
  1946226.26210
 33
       57.36450
999
CORE:CORE:F0
  0
3DFACE
  8
CORE
 62
 43
 10
   959849.88870
 20
  1946226.26210
 30
       57.36450
 11
   959849.88870
 21
  1946226.26210
 31
       54.25620
 12
   959850.92160
 22
  1946223.44560
 32
       54.25620
 13
   959850.92160
 23
  1946223.44560
 33
       57.36450
999
CORE:CORE:F1
  0
3DFACE
  8
CORE
 62
 43
 10
   959852.49100
 20
  1946224.02110
 30
       57.36450
 11
   959852.49100
 21
  1946224.02110
 31
       54.25620
 12
   959851.45800
 22
  1946226.83770
 32
       54.25620
 13
   959851.45800
 23
  1946226.83770
 33
       57.36450
999
CORE:CORE:F2
  0
3DFACE
  8
CORE
 62
 43
 10
   959850.92160
 20
  1946223.44560
 30
       57.36450
 11
   959850.92160
 21
  1946223.44560
 31
       54.25620
 12
   959852.49100
 22
  1946224.02110
 32
       54.25620
 13
   959852.49100
 23
  1946224.02110
 33
       57.36450
999
CORE:CORE:F3
  0
3DFACE
  8
CORE
 62
 43
 10
   959851.45800
 20
  1946226.83770
 30
       57.36450
 11
   959851.45800
 21
  1946226.83770
 31
       54.25620
 12
   959849.88870
 22
  1946226.26210
 32
       54.25620
 13
   959849.88870
 23
  1946226.26210
 33
       57.36450
999
CORE:CORE:F4
  0
3DFACE
  8
CORE
 62
  8
 10
   959849.88870
 20
  1946226.26210
 30
       54.25620
 11
   959851.33850
 21
  1946226.79390
 31
       54.25620
 12
   959852.37150
 22
  1946223.97730
 32
       54.25620
 13
   959850.92160
 23
  1946223.44560
 33
       54.25620
999
CORE:CORE:F5
  0
3DFACE
  8
CORE
 62
  8
 10
   959851.33850
 20
  1946226.79390
 30
       54.25620
 11
   959851.45800
 21
  1946226.83770
 31
       54.25620
 12
   959852.49100
 22
  1946224.02110
 32
       54.25620
 13
   959852.37150
 23
  1946223.97730
 33
       54.25620
999
CORE:CORE:F6
  0
3DFACE
  8
CORE
 62
 15
 10
   959849.88870
 20
  1946226.26210
 30
       57.36450
 11
   959850.92160
 21
  1946223.44560
 31
       57.36450
 12
   959852.37150
 22
  1946223.97730
 32
       57.36450
 13
   959851.33850
 23
  1946226.79390
 33
       57.36450
999
CORE:CORE:F7
  0
3DFACE
  8
CORE
 62
 15
 10
   959851.33850
 20
  1946226.79390
 30
       57.36450
 11
   959852.37150
 21
  1946223.97730
 31
       57.36450
 12
   959852.49100
 22
  1946224.02110
 32
       57.36450
 13
   959851.45800
 23
  1946226.83770
 33
       57.36450
  0
ENDSEC
  0
EOF
