  0
SECTION
  2
ENTITIES
999
DXF created from EnergyPlus
999
Program Version,EnergyPlus, Version 8.4.0-09f5359d8a, YMD=2023.08.02 14:39
999
Polygon Action,TRIANGULATE3DFACE
999
Color Scheme,Default
999
Text - True North
  0
TEXT
  8
1
  6
Continuous
 62
  3
 10
    99988.00000
 20
   100002.00000
 30
        0.10000
 40
 .25
  1
True North
 41
 0.0
  7
MONOTXT
210
0.0
220
0.0
230
1.0
999
Text - Building Title
  0
TEXT
  8
1
  6
Continuous
 62
  3
 10
    99985.00000
 20
    99998.00000
 30
        0.10000
 40
 .4
  1
Building - Building
 41
 0.0
  7
MONOTXT
210
0.0
220
0.0
230
1.0
999
North Arrow Stem
  0
3DFACE
  8
1
 62
  3
 10
    99989.00000
 20
   100002.00000
 30
        0.10000
 11
    99989.00000
 21
   100002.00000
 31
        0.00000
 12
    99989.00000
 22
    99999.00000
 32
        0.00000
 13
    99989.00000
 23
    99999.00000
 33
        0.10000
999
North Arrow Head 1
  0
3DFACE
  8
1
 62
  3
 10
    99989.00000
 20
   100002.00000
 30
        0.10000
 11
    99989.00000
 21
   100002.00000
 31
        0.00000
 12
    99988.50000
 22
   100001.13398
 32
        0.00000
 13
    99988.50000
 23
   100001.13398
 33
        0.10000
999
North Arrow Head 2
  0
3DFACE
  8
1
 62
  3
 10
    99989.00000
 20
   100002.00000
 30
        0.10000
 11
    99989.00000
 21
   100002.00000
 31
        0.00000
 12
    99989.50000
 22
   100001.13398
 32
        0.00000
 13
    99989.50000
 23
   100001.13398
 33
        0.10000
999
North Arrow Side 1
  0
3DFACE
  8
1
 62
  3
 10
    99988.50000
 20
   100003.50000
 30
        0.10000
 11
    99988.50000
 21
   100003.50000
 31
        0.00000
 12
    99988.50000
 22
   100002.50000
 32
        0.00000
 13
    99988.50000
 23
   100002.50000
 33
        0.10000
999
North Arrow Side 2
  0
3DFACE
  8
1
 62
  3
 10
    99988.50000
 20
   100003.50000
 30
        0.10000
 11
    99988.50000
 21
   100003.50000
 31
        0.00000
 12
    99989.50000
 22
   100002.50000
 32
        0.00000
 13
    99989.50000
 23
   100002.50000
 33
        0.10000
999
North Arrow Side 3
  0
3DFACE
  8
1
 62
  3
 10
    99989.50000
 20
   100003.50000
 30
        0.10000
 11
    99989.50000
 21
   100003.50000
 31
        0.00000
 12
    99989.50000
 22
   100002.50000
 32
        0.00000
 13
    99989.50000
 23
   100002.50000
 33
        0.10000
999
Zone Names
999
Zone=1:PERIM
999
Zone=2:CORE
999
Building Shading:SHADER_0
  0
3DFACE
  8
Building Shading
 62
195
 10
   960219.00000
 20
  1946153.12500
 30
       79.25300
 11
   960219.00000
 21
  1946153.12500
 31
       40.25300
 12
   960216.43750
 22
  1946152.12500
 32
       40.25300
 13
   960216.43750
 23
  1946152.12500
 33
       79.25300
999
Building Shading:Mir-SHADER_0
  0
3DFACE
  8
Building Shading
 62
195
 10
   960216.43750
 20
  1946152.12500
 30
       79.25300
 11
   960216.43750
 21
  1946152.12500
 31
       40.25300
 12
   960219.00000
 22
  1946153.12500
 32
       40.25300
 13
   960219.00000
 23
  1946153.12500
 33
       79.25300
999
Building Shading:SHADER_1
  0
3DFACE
  8
Building Shading
 62
195
 10
   960223.93750
 20
  1946165.00000
 30
       79.25300
 11
   960223.93750
 21
  1946165.00000
 31
       40.25300
 12
   960226.00000
 22
  1946159.37500
 32
       40.25300
 13
   960226.00000
 23
  1946159.37500
 33
       79.25300
999
Building Shading:Mir-SHADER_1
  0
3DFACE
  8
Building Shading
 62
195
 10
   960226.00000
 20
  1946159.37500
 30
       79.25300
 11
   960226.00000
 21
  1946159.37500
 31
       40.25300
 12
   960223.93750
 22
  1946165.00000
 32
       40.25300
 13
   960223.93750
 23
  1946165.00000
 33
       79.25300
999
Building Shading:SHADER_2
  0
3DFACE
  8
Building Shading
 62
195
 10
   960204.93750
 20
  1946175.25000
 30
       79.25300
 11
   960204.93750
 21
  1946175.25000
 31
       40.25300
 12
   960205.37500
 22
  1946174.00000
 32
       40.25300
 13
   960205.37500
 23
  1946174.00000
 33
       79.25300
999
Building Shading:Mir-SHADER_2
  0
3DFACE
  8
Building Shading
 62
195
 10
   960205.37500
 20
  1946174.00000
 30
       79.25300
 11
   960205.37500
 21
  1946174.00000
 31
       40.25300
 12
   960204.93750
 22
  1946175.25000
 32
       40.25300
 13
   960204.93750
 23
  1946175.25000
 33
       79.25300
999
PERIM:PERIM:F0
  0
3DFACE
  8
PERIM
 62
 43
 10
   960200.94860
 20
  1946173.65420
 30
       67.36120
 11
   960200.94860
 21
  1946173.65420
 31
       64.25300
 12
   960203.74140
 22
  1946174.74970
 32
       64.25300
 13
   960203.74140
 23
  1946174.74970
 33
       67.36120
999
PERIM:PERIM:F0:W0
  0
3DFACE
  8
PERIM
 62
143
 10
   960201.04170
 20
  1946173.69070
 30
       66.43510
 11
   960201.04170
 21
  1946173.69070
 31
       65.10300
 12
   960203.64830
 22
  1946174.71320
 32
       65.10300
 13
   960203.64830
 23
  1946174.71320
 33
       66.43510
999
PERIM:PERIM:F1
  0
3DFACE
  8
PERIM
 62
 43
 10
   960202.72580
 20
  1946177.33900
 30
       67.36120
 11
   960202.72580
 21
  1946177.33900
 31
       64.25300
 12
   960199.93290
 22
  1946176.24360
 32
       64.25300
 13
   960199.93290
 23
  1946176.24360
 33
       67.36120
999
PERIM:PERIM:F2
  0
3DFACE
  8
PERIM
 62
 43
 10
   960203.74140
 20
  1946174.74970
 30
       67.36120
 11
   960203.74140
 21
  1946174.74970
 31
       64.25300
 12
   960202.72580
 22
  1946177.33900
 32
       64.25300
 13
   960202.72580
 23
  1946177.33900
 33
       67.36120
999
PERIM:PERIM:F3
  0
3DFACE
  8
PERIM
 62
 43
 10
   960199.93290
 20
  1946176.24360
 30
       67.36120
 11
   960199.93290
 21
  1946176.24360
 31
       64.25300
 12
   960200.94860
 22
  1946173.65420
 32
       64.25300
 13
   960200.94860
 23
  1946173.65420
 33
       67.36120
999
PERIM:PERIM:F4
  0
3DFACE
  8
PERIM
 62
  8
 10
   960200.94860
 20
  1946173.65420
 30
       64.25300
 11
   960200.01030
 21
  1946176.04640
 31
       64.25300
 12
   960202.80310
 22
  1946177.14180
 32
       64.25300
 13
   960203.74140
 23
  1946174.74970
 33
       64.25300
999
PERIM:PERIM:F5
  0
3DFACE
  8
PERIM
 62
  8
 10
   960200.01030
 20
  1946176.04640
 30
       64.25300
 11
   960199.93290
 21
  1946176.24360
 31
       64.25300
 12
   960202.72580
 22
  1946177.33900
 32
       64.25300
 13
   960202.80310
 23
  1946177.14180
 33
       64.25300
999
PERIM:PERIM:F6
  0
3DFACE
  8
PERIM
 62
 15
 10
   960200.94860
 20
  1946173.65420
 30
       67.36120
 11
   960203.74140
 21
  1946174.74970
 31
       67.36120
 12
   960202.80310
 22
  1946177.14180
 32
       67.36120
 13
   960200.01030
 23
  1946176.04640
 33
       67.36120
999
PERIM:PERIM:F7
  0
3DFACE
  8
PERIM
 62
 15
 10
   960200.01030
 20
  1946176.04640
 30
       67.36120
 11
   960202.80310
 21
  1946177.14180
 31
       67.36120
 12
   960202.72580
 22
  1946177.33900
 32
       67.36120
 13
   960199.93290
 23
  1946176.24360
 33
       67.36120
999
CORE:CORE:F0
  0
3DFACE
  8
CORE
 62
 43
 10
   960199.93290
 20
  1946176.24360
 30
       67.36120
 11
   960199.93290
 21
  1946176.24360
 31
       64.25300
 12
   960202.72580
 22
  1946177.33900
 32
       64.25300
 13
   960202.72580
 23
  1946177.33900
 33
       67.36120
999
CORE:CORE:F1
  0
3DFACE
  8
CORE
 62
 43
 10
   960202.11540
 20
  1946178.89520
 30
       67.36120
 11
   960202.11540
 21
  1946178.89520
 31
       64.25300
 12
   960199.32260
 22
  1946177.79970
 32
       64.25300
 13
   960199.32260
 23
  1946177.79970
 33
       67.36120
999
CORE:CORE:F2
  0
3DFACE
  8
CORE
 62
 43
 10
   960202.72580
 20
  1946177.33900
 30
       67.36120
 11
   960202.72580
 21
  1946177.33900
 31
       64.25300
 12
   960202.11540
 22
  1946178.89520
 32
       64.25300
 13
   960202.11540
 23
  1946178.89520
 33
       67.36120
999
CORE:CORE:F3
  0
3DFACE
  8
CORE
 62
 43
 10
   960199.32260
 20
  1946177.79970
 30
       67.36120
 11
   960199.32260
 21
  1946177.79970
 31
       64.25300
 12
   960199.93290
 22
  1946176.24360
 32
       64.25300
 13
   960199.93290
 23
  1946176.24360
 33
       67.36120
999
CORE:CORE:F4
  0
3DFACE
  8
CORE
 62
  8
 10
   960199.93290
 20
  1946176.24360
 30
       64.25300
 11
   960199.36900
 21
  1946177.68120
 31
       64.25300
 12
   960202.16190
 22
  1946178.77670
 32
       64.25300
 13
   960202.72580
 23
  1946177.33900
 33
       64.25300
999
CORE:CORE:F5
  0
3DFACE
  8
CORE
 62
  8
 10
   960199.36900
 20
  1946177.68120
 30
       64.25300
 11
   960199.32260
 21
  1946177.79970
 31
       64.25300
 12
   960202.11540
 22
  1946178.89520
 32
       64.25300
 13
   960202.16190
 23
  1946178.77670
 33
       64.25300
999
CORE:CORE:F6
  0
3DFACE
  8
CORE
 62
 15
 10
   960199.93290
 20
  1946176.24360
 30
       67.36120
 11
   960202.72580
 21
  1946177.33900
 31
       67.36120
 12
   960202.16190
 22
  1946178.77670
 32
       67.36120
 13
   960199.36900
 23
  1946177.68120
 33
       67.36120
999
CORE:CORE:F7
  0
3DFACE
  8
CORE
 62
 15
 10
   960199.36900
 20
  1946177.68120
 30
       67.36120
 11
   960202.16190
 21
  1946178.77670
 31
       67.36120
 12
   960202.11540
 22
  1946178.89520
 32
       67.36120
 13
   960199.32260
 23
  1946177.79970
 33
       67.36120
  0
ENDSEC
  0
EOF
