  0
SECTION
  2
ENTITIES
999
DXF created from EnergyPlus
999
Program Version,EnergyPlus, Version 8.4.0-09f5359d8a, YMD=2023.08.02 14:39
999
Polygon Action,TRIANGULATE3DFACE
999
Color Scheme,Default
999
Text - True North
  0
TEXT
  8
1
  6
Continuous
 62
  3
 10
    99988.00000
 20
   100002.00000
 30
        0.10000
 40
 .25
  1
True North
 41
 0.0
  7
MONOTXT
210
0.0
220
0.0
230
1.0
999
Text - Building Title
  0
TEXT
  8
1
  6
Continuous
 62
  3
 10
    99985.00000
 20
    99998.00000
 30
        0.10000
 40
 .4
  1
Building - Building
 41
 0.0
  7
MONOTXT
210
0.0
220
0.0
230
1.0
999
North Arrow Stem
  0
3DFACE
  8
1
 62
  3
 10
    99989.00000
 20
   100002.00000
 30
        0.10000
 11
    99989.00000
 21
   100002.00000
 31
        0.00000
 12
    99989.00000
 22
    99999.00000
 32
        0.00000
 13
    99989.00000
 23
    99999.00000
 33
        0.10000
999
North Arrow Head 1
  0
3DFACE
  8
1
 62
  3
 10
    99989.00000
 20
   100002.00000
 30
        0.10000
 11
    99989.00000
 21
   100002.00000
 31
        0.00000
 12
    99988.50000
 22
   100001.13398
 32
        0.00000
 13
    99988.50000
 23
   100001.13398
 33
        0.10000
999
North Arrow Head 2
  0
3DFACE
  8
1
 62
  3
 10
    99989.00000
 20
   100002.00000
 30
        0.10000
 11
    99989.00000
 21
   100002.00000
 31
        0.00000
 12
    99989.50000
 22
   100001.13398
 32
        0.00000
 13
    99989.50000
 23
   100001.13398
 33
        0.10000
999
North Arrow Side 1
  0
3DFACE
  8
1
 62
  3
 10
    99988.50000
 20
   100003.50000
 30
        0.10000
 11
    99988.50000
 21
   100003.50000
 31
        0.00000
 12
    99988.50000
 22
   100002.50000
 32
        0.00000
 13
    99988.50000
 23
   100002.50000
 33
        0.10000
999
North Arrow Side 2
  0
3DFACE
  8
1
 62
  3
 10
    99988.50000
 20
   100003.50000
 30
        0.10000
 11
    99988.50000
 21
   100003.50000
 31
        0.00000
 12
    99989.50000
 22
   100002.50000
 32
        0.00000
 13
    99989.50000
 23
   100002.50000
 33
        0.10000
999
North Arrow Side 3
  0
3DFACE
  8
1
 62
  3
 10
    99989.50000
 20
   100003.50000
 30
        0.10000
 11
    99989.50000
 21
   100003.50000
 31
        0.00000
 12
    99989.50000
 22
   100002.50000
 32
        0.00000
 13
    99989.50000
 23
   100002.50000
 33
        0.10000
999
Zone Names
999
Zone=1:PERIM
999
Zone=2:CORE
999
Building Shading:SHADER_0
  0
3DFACE
  8
Building Shading
 62
195
 10
   960263.93750
 20
  1946191.75000
 30
       99.42220
 11
   960263.93750
 21
  1946191.75000
 31
       41.42220
 12
   960268.37500
 22
  1946179.75000
 32
       41.42220
 13
   960268.37500
 23
  1946179.75000
 33
       99.42220
999
Building Shading:Mir-SHADER_0
  0
3DFACE
  8
Building Shading
 62
195
 10
   960268.37500
 20
  1946179.75000
 30
       99.42220
 11
   960268.37500
 21
  1946179.75000
 31
       41.42220
 12
   960263.93750
 22
  1946191.75000
 32
       41.42220
 13
   960263.93750
 23
  1946191.75000
 33
       99.42220
999
PERIM:PERIM:F0
  0
3DFACE
  8
PERIM
 62
 43
 10
   960223.05880
 20
  1946200.22140
 30
       76.36120
 11
   960223.05880
 21
  1946200.22140
 31
       73.25300
 12
   960222.00690
 22
  1946203.03090
 32
       73.25300
 13
   960222.00690
 23
  1946203.03090
 33
       76.36120
999
PERIM:PERIM:F0:W0
  0
3DFACE
  8
PERIM
 62
143
 10
   960223.02380
 20
  1946200.31510
 30
       75.43510
 11
   960223.02380
 21
  1946200.31510
 31
       74.10300
 12
   960222.04190
 22
  1946202.93730
 32
       74.10300
 13
   960222.04190
 23
  1946202.93730
 33
       75.43510
999
PERIM:PERIM:F1
  0
3DFACE
  8
PERIM
 62
 43
 10
   960219.40210
 20
  1946202.05560
 30
       76.36120
 11
   960219.40210
 21
  1946202.05560
 31
       73.25300
 12
   960220.45410
 22
  1946199.24610
 32
       73.25300
 13
   960220.45410
 23
  1946199.24610
 33
       76.36120
999
PERIM:PERIM:F2
  0
3DFACE
  8
PERIM
 62
 43
 10
   960222.00690
 20
  1946203.03090
 30
       76.36120
 11
   960222.00690
 21
  1946203.03090
 31
       73.25300
 12
   960219.40210
 22
  1946202.05560
 32
       73.25300
 13
   960219.40210
 23
  1946202.05560
 33
       76.36120
999
PERIM:PERIM:F3
  0
3DFACE
  8
PERIM
 62
 43
 10
   960220.45410
 20
  1946199.24610
 30
       76.36120
 11
   960220.45410
 21
  1946199.24610
 31
       73.25300
 12
   960223.05880
 22
  1946200.22140
 32
       73.25300
 13
   960223.05880
 23
  1946200.22140
 33
       76.36120
999
PERIM:PERIM:F4
  0
3DFACE
  8
PERIM
 62
  8
 10
   960223.05880
 20
  1946200.22140
 30
       73.25300
 11
   960220.65240
 21
  1946199.32040
 31
       73.25300
 12
   960219.60050
 22
  1946202.12990
 32
       73.25300
 13
   960222.00690
 23
  1946203.03090
 33
       73.25300
999
PERIM:PERIM:F5
  0
3DFACE
  8
PERIM
 62
  8
 10
   960220.65240
 20
  1946199.32040
 30
       73.25300
 11
   960220.45410
 21
  1946199.24610
 31
       73.25300
 12
   960219.40210
 22
  1946202.05560
 32
       73.25300
 13
   960219.60050
 23
  1946202.12990
 33
       73.25300
999
PERIM:PERIM:F6
  0
3DFACE
  8
PERIM
 62
 15
 10
   960223.05880
 20
  1946200.22140
 30
       76.36120
 11
   960222.00690
 21
  1946203.03090
 31
       76.36120
 12
   960219.60050
 22
  1946202.12990
 32
       76.36120
 13
   960220.65240
 23
  1946199.32040
 33
       76.36120
999
PERIM:PERIM:F7
  0
3DFACE
  8
PERIM
 62
 15
 10
   960220.65240
 20
  1946199.32040
 30
       76.36120
 11
   960219.60050
 21
  1946202.12990
 31
       76.36120
 12
   960219.40210
 22
  1946202.05560
 32
       76.36120
 13
   960220.45410
 23
  1946199.24610
 33
       76.36120
999
CORE:CORE:F0
  0
3DFACE
  8
CORE
 62
 43
 10
   960220.45410
 20
  1946199.24610
 30
       76.36120
 11
   960220.45410
 21
  1946199.24610
 31
       73.25300
 12
   960219.40210
 22
  1946202.05560
 32
       73.25300
 13
   960219.40210
 23
  1946202.05560
 33
       76.36120
999
CORE:CORE:F1
  0
3DFACE
  8
CORE
 62
 43
 10
   960217.83660
 20
  1946201.46950
 30
       76.36120
 11
   960217.83660
 21
  1946201.46950
 31
       73.25300
 12
   960218.88860
 22
  1946198.65990
 32
       73.25300
 13
   960218.88860
 23
  1946198.65990
 33
       76.36120
999
CORE:CORE:F2
  0
3DFACE
  8
CORE
 62
 43
 10
   960219.40210
 20
  1946202.05560
 30
       76.36120
 11
   960219.40210
 21
  1946202.05560
 31
       73.25300
 12
   960217.83660
 22
  1946201.46950
 32
       73.25300
 13
   960217.83660
 23
  1946201.46950
 33
       76.36120
999
CORE:CORE:F3
  0
3DFACE
  8
CORE
 62
 43
 10
   960218.88860
 20
  1946198.65990
 30
       76.36120
 11
   960218.88860
 21
  1946198.65990
 31
       73.25300
 12
   960220.45410
 22
  1946199.24610
 32
       73.25300
 13
   960220.45410
 23
  1946199.24610
 33
       76.36120
999
CORE:CORE:F4
  0
3DFACE
  8
CORE
 62
  8
 10
   960220.45410
 20
  1946199.24610
 30
       73.25300
 11
   960219.00780
 21
  1946198.70460
 31
       73.25300
 12
   960217.95590
 22
  1946201.51410
 32
       73.25300
 13
   960219.40210
 23
  1946202.05560
 33
       73.25300
999
CORE:CORE:F5
  0
3DFACE
  8
CORE
 62
  8
 10
   960219.00780
 20
  1946198.70460
 30
       73.25300
 11
   960218.88860
 21
  1946198.65990
 31
       73.25300
 12
   960217.83660
 22
  1946201.46950
 32
       73.25300
 13
   960217.95590
 23
  1946201.51410
 33
       73.25300
999
CORE:CORE:F6
  0
3DFACE
  8
CORE
 62
 15
 10
   960220.45410
 20
  1946199.24610
 30
       76.36120
 11
   960219.40210
 21
  1946202.05560
 31
       76.36120
 12
   960217.95590
 22
  1946201.51410
 32
       76.36120
 13
   960219.00780
 23
  1946198.70460
 33
       76.36120
999
CORE:CORE:F7
  0
3DFACE
  8
CORE
 62
 15
 10
   960219.00780
 20
  1946198.70460
 30
       76.36120
 11
   960217.95590
 21
  1946201.51410
 31
       76.36120
 12
   960217.83660
 22
  1946201.46950
 32
       76.36120
 13
   960218.88860
 23
  1946198.65990
 33
       76.36120
  0
ENDSEC
  0
EOF
