  0
SECTION
  2
ENTITIES
999
DXF created from EnergyPlus
999
Program Version,EnergyPlus, Version 8.4.0-09f5359d8a, YMD=2023.08.02 14:39
999
Polygon Action,TRIANGULATE3DFACE
999
Color Scheme,Default
999
Text - True North
  0
TEXT
  8
1
  6
Continuous
 62
  3
 10
    99988.00000
 20
   100002.00000
 30
        0.10000
 40
 .25
  1
True North
 41
 0.0
  7
MONOTXT
210
0.0
220
0.0
230
1.0
999
Text - Building Title
  0
TEXT
  8
1
  6
Continuous
 62
  3
 10
    99985.00000
 20
    99998.00000
 30
        0.10000
 40
 .4
  1
Building - Building
 41
 0.0
  7
MONOTXT
210
0.0
220
0.0
230
1.0
999
North Arrow Stem
  0
3DFACE
  8
1
 62
  3
 10
    99989.00000
 20
   100002.00000
 30
        0.10000
 11
    99989.00000
 21
   100002.00000
 31
        0.00000
 12
    99989.00000
 22
    99999.00000
 32
        0.00000
 13
    99989.00000
 23
    99999.00000
 33
        0.10000
999
North Arrow Head 1
  0
3DFACE
  8
1
 62
  3
 10
    99989.00000
 20
   100002.00000
 30
        0.10000
 11
    99989.00000
 21
   100002.00000
 31
        0.00000
 12
    99988.50000
 22
   100001.13398
 32
        0.00000
 13
    99988.50000
 23
   100001.13398
 33
        0.10000
999
North Arrow Head 2
  0
3DFACE
  8
1
 62
  3
 10
    99989.00000
 20
   100002.00000
 30
        0.10000
 11
    99989.00000
 21
   100002.00000
 31
        0.00000
 12
    99989.50000
 22
   100001.13398
 32
        0.00000
 13
    99989.50000
 23
   100001.13398
 33
        0.10000
999
North Arrow Side 1
  0
3DFACE
  8
1
 62
  3
 10
    99988.50000
 20
   100003.50000
 30
        0.10000
 11
    99988.50000
 21
   100003.50000
 31
        0.00000
 12
    99988.50000
 22
   100002.50000
 32
        0.00000
 13
    99988.50000
 23
   100002.50000
 33
        0.10000
999
North Arrow Side 2
  0
3DFACE
  8
1
 62
  3
 10
    99988.50000
 20
   100003.50000
 30
        0.10000
 11
    99988.50000
 21
   100003.50000
 31
        0.00000
 12
    99989.50000
 22
   100002.50000
 32
        0.00000
 13
    99989.50000
 23
   100002.50000
 33
        0.10000
999
North Arrow Side 3
  0
3DFACE
  8
1
 62
  3
 10
    99989.50000
 20
   100003.50000
 30
        0.10000
 11
    99989.50000
 21
   100003.50000
 31
        0.00000
 12
    99989.50000
 22
   100002.50000
 32
        0.00000
 13
    99989.50000
 23
   100002.50000
 33
        0.10000
999
Zone Names
999
Zone=1:PERIM
999
Zone=2:CORE
999
Building Shading:SHADER_0
  0
3DFACE
  8
Building Shading
 62
195
 10
   959683.18750
 20
  1946511.12500
 30
      104.24070
 11
   959683.18750
 21
  1946511.12500
 31
       43.24070
 12
   959674.62500
 22
  1946549.12500
 32
       43.24070
 13
   959674.62500
 23
  1946549.12500
 33
      104.24070
999
Building Shading:Mir-SHADER_0
  0
3DFACE
  8
Building Shading
 62
195
 10
   959674.62500
 20
  1946549.12500
 30
      104.24070
 11
   959674.62500
 21
  1946549.12500
 31
       43.24070
 12
   959683.18750
 22
  1946511.12500
 32
       43.24070
 13
   959683.18750
 23
  1946511.12500
 33
      104.24070
999
Building Shading:SHADER_1
  0
3DFACE
  8
Building Shading
 62
195
 10
   959761.62500
 20
  1946538.87500
 30
       65.98010
 11
   959761.62500
 21
  1946538.87500
 31
       39.98010
 12
   959704.56250
 22
  1946526.50000
 32
       39.98010
 13
   959704.56250
 23
  1946526.50000
 33
       65.98010
999
Building Shading:Mir-SHADER_1
  0
3DFACE
  8
Building Shading
 62
195
 10
   959704.56250
 20
  1946526.50000
 30
       65.98010
 11
   959704.56250
 21
  1946526.50000
 31
       39.98010
 12
   959761.62500
 22
  1946538.87500
 32
       39.98010
 13
   959761.62500
 23
  1946538.87500
 33
       65.98010
999
Building Shading:SHADER_2
  0
3DFACE
  8
Building Shading
 62
195
 10
   959769.68750
 20
  1946492.37500
 30
       93.09530
 11
   959769.68750
 21
  1946492.37500
 31
       40.09530
 12
   959764.43750
 22
  1946491.12500
 32
       40.09530
 13
   959764.43750
 23
  1946491.12500
 33
       93.09530
999
Building Shading:Mir-SHADER_2
  0
3DFACE
  8
Building Shading
 62
195
 10
   959764.43750
 20
  1946491.12500
 30
       93.09530
 11
   959764.43750
 21
  1946491.12500
 31
       40.09530
 12
   959769.68750
 22
  1946492.37500
 32
       40.09530
 13
   959769.68750
 23
  1946492.37500
 33
       93.09530
999
Building Shading:SHADER_3
  0
3DFACE
  8
Building Shading
 62
195
 10
   959804.31250
 20
  1946501.75000
 30
       93.09530
 11
   959804.31250
 21
  1946501.75000
 31
       40.09530
 12
   959801.18750
 22
  1946501.00000
 32
       40.09530
 13
   959801.18750
 23
  1946501.00000
 33
       93.09530
999
Building Shading:Mir-SHADER_3
  0
3DFACE
  8
Building Shading
 62
195
 10
   959801.18750
 20
  1946501.00000
 30
       93.09530
 11
   959801.18750
 21
  1946501.00000
 31
       40.09530
 12
   959804.31250
 22
  1946501.75000
 32
       40.09530
 13
   959804.31250
 23
  1946501.75000
 33
       93.09530
999
Building Shading:SHADER_4
  0
3DFACE
  8
Building Shading
 62
195
 10
   959780.87500
 20
  1946570.87500
 30
       96.98660
 11
   959780.87500
 21
  1946570.87500
 31
       37.98660
 12
   959785.68750
 22
  1946549.00000
 32
       37.98660
 13
   959785.68750
 23
  1946549.00000
 33
       96.98660
999
Building Shading:Mir-SHADER_4
  0
3DFACE
  8
Building Shading
 62
195
 10
   959785.68750
 20
  1946549.00000
 30
       96.98660
 11
   959785.68750
 21
  1946549.00000
 31
       37.98660
 12
   959780.87500
 22
  1946570.87500
 32
       37.98660
 13
   959780.87500
 23
  1946570.87500
 33
       96.98660
999
PERIM:PERIM:F0
  0
3DFACE
  8
PERIM
 62
 43
 10
   959766.78100
 20
  1946565.59480
 30
       41.09490
 11
   959766.78100
 21
  1946565.59480
 31
       37.98660
 12
   959769.70110
 22
  1946566.28260
 32
       37.98660
 13
   959769.70110
 23
  1946566.28260
 33
       41.09490
999
PERIM:PERIM:F0:W0
  0
3DFACE
  8
PERIM
 62
143
 10
   959766.87840
 20
  1946565.61770
 30
       40.16870
 11
   959766.87840
 21
  1946565.61770
 31
       38.83660
 12
   959769.60380
 22
  1946566.25970
 32
       38.83660
 13
   959769.60380
 23
  1946566.25970
 33
       40.16870
999
PERIM:PERIM:F1
  0
3DFACE
  8
PERIM
 62
 43
 10
   959769.06340
 20
  1946568.98990
 30
       41.09490
 11
   959769.06340
 21
  1946568.98990
 31
       37.98660
 12
   959766.14330
 22
  1946568.30210
 32
       37.98660
 13
   959766.14330
 23
  1946568.30210
 33
       41.09490
999
PERIM:PERIM:F2
  0
3DFACE
  8
PERIM
 62
 43
 10
   959769.70110
 20
  1946566.28260
 30
       41.09490
 11
   959769.70110
 21
  1946566.28260
 31
       37.98660
 12
   959769.06340
 22
  1946568.98990
 32
       37.98660
 13
   959769.06340
 23
  1946568.98990
 33
       41.09490
999
PERIM:PERIM:F3
  0
3DFACE
  8
PERIM
 62
 43
 10
   959766.14330
 20
  1946568.30210
 30
       41.09490
 11
   959766.14330
 21
  1946568.30210
 31
       37.98660
 12
   959766.78100
 22
  1946565.59480
 32
       37.98660
 13
   959766.78100
 23
  1946565.59480
 33
       41.09490
999
PERIM:PERIM:F4
  0
3DFACE
  8
PERIM
 62
  8
 10
   959766.78100
 20
  1946565.59480
 30
       37.98660
 11
   959766.19190
 21
  1946568.09590
 31
       37.98660
 12
   959769.11190
 22
  1946568.78380
 32
       37.98660
 13
   959769.70110
 23
  1946566.28260
 33
       37.98660
999
PERIM:PERIM:F5
  0
3DFACE
  8
PERIM
 62
  8
 10
   959766.19190
 20
  1946568.09590
 30
       37.98660
 11
   959766.14330
 21
  1946568.30210
 31
       37.98660
 12
   959769.06340
 22
  1946568.98990
 32
       37.98660
 13
   959769.11190
 23
  1946568.78380
 33
       37.98660
999
PERIM:PERIM:F6
  0
3DFACE
  8
PERIM
 62
 15
 10
   959766.78100
 20
  1946565.59480
 30
       41.09490
 11
   959769.70110
 21
  1946566.28260
 31
       41.09490
 12
   959769.11190
 22
  1946568.78380
 32
       41.09490
 13
   959766.19190
 23
  1946568.09590
 33
       41.09490
999
PERIM:PERIM:F7
  0
3DFACE
  8
PERIM
 62
 15
 10
   959766.19190
 20
  1946568.09590
 30
       41.09490
 11
   959769.11190
 21
  1946568.78380
 31
       41.09490
 12
   959769.06340
 22
  1946568.98990
 32
       41.09490
 13
   959766.14330
 23
  1946568.30210
 33
       41.09490
999
CORE:CORE:F0
  0
3DFACE
  8
CORE
 62
 43
 10
   959766.14330
 20
  1946568.30210
 30
       41.09490
 11
   959766.14330
 21
  1946568.30210
 31
       37.98660
 12
   959769.06340
 22
  1946568.98990
 32
       37.98660
 13
   959769.06340
 23
  1946568.98990
 33
       41.09490
999
CORE:CORE:F1
  0
3DFACE
  8
CORE
 62
 43
 10
   959768.68010
 20
  1946570.61700
 30
       41.09490
 11
   959768.68010
 21
  1946570.61700
 31
       37.98660
 12
   959765.76000
 22
  1946569.92910
 32
       37.98660
 13
   959765.76000
 23
  1946569.92910
 33
       41.09490
999
CORE:CORE:F2
  0
3DFACE
  8
CORE
 62
 43
 10
   959769.06340
 20
  1946568.98990
 30
       41.09490
 11
   959769.06340
 21
  1946568.98990
 31
       37.98660
 12
   959768.68010
 22
  1946570.61700
 32
       37.98660
 13
   959768.68010
 23
  1946570.61700
 33
       41.09490
999
CORE:CORE:F3
  0
3DFACE
  8
CORE
 62
 43
 10
   959765.76000
 20
  1946569.92910
 30
       41.09490
 11
   959765.76000
 21
  1946569.92910
 31
       37.98660
 12
   959766.14330
 22
  1946568.30210
 32
       37.98660
 13
   959766.14330
 23
  1946568.30210
 33
       41.09490
999
CORE:CORE:F4
  0
3DFACE
  8
CORE
 62
  8
 10
   959766.14330
 20
  1946568.30210
 30
       37.98660
 11
   959765.78920
 21
  1946569.80520
 31
       37.98660
 12
   959768.70930
 22
  1946570.49310
 32
       37.98660
 13
   959769.06340
 23
  1946568.98990
 33
       37.98660
999
CORE:CORE:F5
  0
3DFACE
  8
CORE
 62
  8
 10
   959765.78920
 20
  1946569.80520
 30
       37.98660
 11
   959765.76000
 21
  1946569.92910
 31
       37.98660
 12
   959768.68010
 22
  1946570.61700
 32
       37.98660
 13
   959768.70930
 23
  1946570.49310
 33
       37.98660
999
CORE:CORE:F6
  0
3DFACE
  8
CORE
 62
 15
 10
   959766.14330
 20
  1946568.30210
 30
       41.09490
 11
   959769.06340
 21
  1946568.98990
 31
       41.09490
 12
   959768.70930
 22
  1946570.49310
 32
       41.09490
 13
   959765.78920
 23
  1946569.80520
 33
       41.09490
999
CORE:CORE:F7
  0
3DFACE
  8
CORE
 62
 15
 10
   959765.78920
 20
  1946569.80520
 30
       41.09490
 11
   959768.70930
 21
  1946570.49310
 31
       41.09490
 12
   959768.68010
 22
  1946570.61700
 32
       41.09490
 13
   959765.76000
 23
  1946569.92910
 33
       41.09490
  0
ENDSEC
  0
EOF
