  0
SECTION
  2
ENTITIES
999
DXF created from EnergyPlus
999
Program Version,EnergyPlus, Version 8.4.0-09f5359d8a, YMD=2023.08.02 14:39
999
Polygon Action,TRIANGULATE3DFACE
999
Color Scheme,Default
999
Text - True North
  0
TEXT
  8
1
  6
Continuous
 62
  3
 10
    99988.00000
 20
   100002.00000
 30
        0.10000
 40
 .25
  1
True North
 41
 0.0
  7
MONOTXT
210
0.0
220
0.0
230
1.0
999
Text - Building Title
  0
TEXT
  8
1
  6
Continuous
 62
  3
 10
    99985.00000
 20
    99998.00000
 30
        0.10000
 40
 .4
  1
Building - Building
 41
 0.0
  7
MONOTXT
210
0.0
220
0.0
230
1.0
999
North Arrow Stem
  0
3DFACE
  8
1
 62
  3
 10
    99989.00000
 20
   100002.00000
 30
        0.10000
 11
    99989.00000
 21
   100002.00000
 31
        0.00000
 12
    99989.00000
 22
    99999.00000
 32
        0.00000
 13
    99989.00000
 23
    99999.00000
 33
        0.10000
999
North Arrow Head 1
  0
3DFACE
  8
1
 62
  3
 10
    99989.00000
 20
   100002.00000
 30
        0.10000
 11
    99989.00000
 21
   100002.00000
 31
        0.00000
 12
    99988.50000
 22
   100001.13398
 32
        0.00000
 13
    99988.50000
 23
   100001.13398
 33
        0.10000
999
North Arrow Head 2
  0
3DFACE
  8
1
 62
  3
 10
    99989.00000
 20
   100002.00000
 30
        0.10000
 11
    99989.00000
 21
   100002.00000
 31
        0.00000
 12
    99989.50000
 22
   100001.13398
 32
        0.00000
 13
    99989.50000
 23
   100001.13398
 33
        0.10000
999
North Arrow Side 1
  0
3DFACE
  8
1
 62
  3
 10
    99988.50000
 20
   100003.50000
 30
        0.10000
 11
    99988.50000
 21
   100003.50000
 31
        0.00000
 12
    99988.50000
 22
   100002.50000
 32
        0.00000
 13
    99988.50000
 23
   100002.50000
 33
        0.10000
999
North Arrow Side 2
  0
3DFACE
  8
1
 62
  3
 10
    99988.50000
 20
   100003.50000
 30
        0.10000
 11
    99988.50000
 21
   100003.50000
 31
        0.00000
 12
    99989.50000
 22
   100002.50000
 32
        0.00000
 13
    99989.50000
 23
   100002.50000
 33
        0.10000
999
North Arrow Side 3
  0
3DFACE
  8
1
 62
  3
 10
    99989.50000
 20
   100003.50000
 30
        0.10000
 11
    99989.50000
 21
   100003.50000
 31
        0.00000
 12
    99989.50000
 22
   100002.50000
 32
        0.00000
 13
    99989.50000
 23
   100002.50000
 33
        0.10000
999
Zone Names
999
Zone=1:PERIM
999
Zone=2:CORE
999
Building Shading:SHADER_0
  0
3DFACE
  8
Building Shading
 62
195
 10
   960230.62500
 20
  1946178.12500
 30
       79.25300
 11
   960230.62500
 21
  1946178.12500
 31
       40.25300
 12
   960224.50000
 22
  1946194.62500
 32
       40.25300
 13
   960224.50000
 23
  1946194.62500
 33
       79.25300
999
Building Shading:Mir-SHADER_0
  0
3DFACE
  8
Building Shading
 62
195
 10
   960224.50000
 20
  1946194.62500
 30
       79.25300
 11
   960224.50000
 21
  1946194.62500
 31
       40.25300
 12
   960230.62500
 22
  1946178.12500
 32
       40.25300
 13
   960230.62500
 23
  1946178.12500
 33
       79.25300
999
Building Shading:SHADER_1
  0
3DFACE
  8
Building Shading
 62
195
 10
   960232.00000
 20
  1946173.75000
 30
       79.25300
 11
   960232.00000
 21
  1946173.75000
 31
       40.25300
 12
   960230.62500
 22
  1946177.87500
 32
       40.25300
 13
   960230.62500
 23
  1946177.87500
 33
       79.25300
999
Building Shading:Mir-SHADER_1
  0
3DFACE
  8
Building Shading
 62
195
 10
   960230.62500
 20
  1946177.87500
 30
       79.25300
 11
   960230.62500
 21
  1946177.87500
 31
       40.25300
 12
   960232.00000
 22
  1946173.75000
 32
       40.25300
 13
   960232.00000
 23
  1946173.75000
 33
       79.25300
999
PERIM:PERIM:F0
  0
3DFACE
  8
PERIM
 62
 43
 10
   960234.66740
 20
  1946174.62660
 30
       64.36120
 11
   960234.66740
 21
  1946174.62660
 31
       61.25300
 12
   960231.80760
 22
  1946173.72030
 32
       61.25300
 13
   960231.80760
 23
  1946173.72030
 33
       64.36120
999
PERIM:PERIM:F0:W0
  0
3DFACE
  8
PERIM
 62
143
 10
   960234.57210
 20
  1946174.59640
 30
       63.43510
 11
   960234.57210
 21
  1946174.59640
 31
       62.10300
 12
   960231.90290
 22
  1946173.75050
 32
       62.10300
 13
   960231.90290
 23
  1946173.75050
 33
       63.43510
999
PERIM:PERIM:F1
  0
3DFACE
  8
PERIM
 62
 43
 10
   960232.64780
 20
  1946171.06890
 30
       64.36120
 11
   960232.64780
 21
  1946171.06890
 31
       61.25300
 12
   960235.50760
 22
  1946171.97510
 32
       61.25300
 13
   960235.50760
 23
  1946171.97510
 33
       64.36120
999
PERIM:PERIM:F2
  0
3DFACE
  8
PERIM
 62
 43
 10
   960231.80760
 20
  1946173.72030
 30
       64.36120
 11
   960231.80760
 21
  1946173.72030
 31
       61.25300
 12
   960232.64780
 22
  1946171.06890
 32
       61.25300
 13
   960232.64780
 23
  1946171.06890
 33
       64.36120
999
PERIM:PERIM:F3
  0
3DFACE
  8
PERIM
 62
 43
 10
   960235.50760
 20
  1946171.97510
 30
       64.36120
 11
   960235.50760
 21
  1946171.97510
 31
       61.25300
 12
   960234.66740
 22
  1946174.62660
 32
       61.25300
 13
   960234.66740
 23
  1946174.62660
 33
       64.36120
999
PERIM:PERIM:F4
  0
3DFACE
  8
PERIM
 62
  8
 10
   960234.66740
 20
  1946174.62660
 30
       61.25300
 11
   960235.44360
 21
  1946172.17710
 31
       61.25300
 12
   960232.58380
 22
  1946171.27080
 32
       61.25300
 13
   960231.80760
 23
  1946173.72030
 33
       61.25300
999
PERIM:PERIM:F5
  0
3DFACE
  8
PERIM
 62
  8
 10
   960235.44360
 20
  1946172.17710
 30
       61.25300
 11
   960235.50760
 21
  1946171.97510
 31
       61.25300
 12
   960232.64780
 22
  1946171.06890
 32
       61.25300
 13
   960232.58380
 23
  1946171.27080
 33
       61.25300
999
PERIM:PERIM:F6
  0
3DFACE
  8
PERIM
 62
 15
 10
   960234.66740
 20
  1946174.62660
 30
       64.36120
 11
   960231.80760
 21
  1946173.72030
 31
       64.36120
 12
   960232.58380
 22
  1946171.27080
 32
       64.36120
 13
   960235.44360
 23
  1946172.17710
 33
       64.36120
999
PERIM:PERIM:F7
  0
3DFACE
  8
PERIM
 62
 15
 10
   960235.44360
 20
  1946172.17710
 30
       64.36120
 11
   960232.58380
 21
  1946171.27080
 31
       64.36120
 12
   960232.64780
 22
  1946171.06890
 32
       64.36120
 13
   960235.50760
 23
  1946171.97510
 33
       64.36120
999
CORE:CORE:F0
  0
3DFACE
  8
CORE
 62
 43
 10
   960235.50760
 20
  1946171.97510
 30
       64.36120
 11
   960235.50760
 21
  1946171.97510
 31
       61.25300
 12
   960232.64780
 22
  1946171.06890
 32
       61.25300
 13
   960232.64780
 23
  1946171.06890
 33
       64.36120
999
CORE:CORE:F1
  0
3DFACE
  8
CORE
 62
 43
 10
   960233.15280
 20
  1946169.47540
 30
       64.36120
 11
   960233.15280
 21
  1946169.47540
 31
       61.25300
 12
   960236.01260
 22
  1946170.38170
 32
       61.25300
 13
   960236.01260
 23
  1946170.38170
 33
       64.36120
999
CORE:CORE:F2
  0
3DFACE
  8
CORE
 62
 43
 10
   960232.64780
 20
  1946171.06890
 30
       64.36120
 11
   960232.64780
 21
  1946171.06890
 31
       61.25300
 12
   960233.15280
 22
  1946169.47540
 32
       61.25300
 13
   960233.15280
 23
  1946169.47540
 33
       64.36120
999
CORE:CORE:F3
  0
3DFACE
  8
CORE
 62
 43
 10
   960236.01260
 20
  1946170.38170
 30
       64.36120
 11
   960236.01260
 21
  1946170.38170
 31
       61.25300
 12
   960235.50760
 22
  1946171.97510
 32
       61.25300
 13
   960235.50760
 23
  1946171.97510
 33
       64.36120
999
CORE:CORE:F4
  0
3DFACE
  8
CORE
 62
  8
 10
   960235.50760
 20
  1946171.97510
 30
       61.25300
 11
   960235.97410
 21
  1946170.50300
 31
       61.25300
 12
   960233.11430
 22
  1946169.59670
 32
       61.25300
 13
   960232.64780
 23
  1946171.06890
 33
       61.25300
999
CORE:CORE:F5
  0
3DFACE
  8
CORE
 62
  8
 10
   960235.97410
 20
  1946170.50300
 30
       61.25300
 11
   960236.01260
 21
  1946170.38170
 31
       61.25300
 12
   960233.15280
 22
  1946169.47540
 32
       61.25300
 13
   960233.11430
 23
  1946169.59670
 33
       61.25300
999
CORE:CORE:F6
  0
3DFACE
  8
CORE
 62
 15
 10
   960235.50760
 20
  1946171.97510
 30
       64.36120
 11
   960232.64780
 21
  1946171.06890
 31
       64.36120
 12
   960233.11430
 22
  1946169.59670
 32
       64.36120
 13
   960235.97410
 23
  1946170.50300
 33
       64.36120
999
CORE:CORE:F7
  0
3DFACE
  8
CORE
 62
 15
 10
   960235.97410
 20
  1946170.50300
 30
       64.36120
 11
   960233.11430
 21
  1946169.59670
 31
       64.36120
 12
   960233.15280
 22
  1946169.47540
 32
       64.36120
 13
   960236.01260
 23
  1946170.38170
 33
       64.36120
  0
ENDSEC
  0
EOF
