  0
SECTION
  2
ENTITIES
999
DXF created from EnergyPlus
999
Program Version,EnergyPlus, Version 8.4.0-09f5359d8a, YMD=2023.08.02 14:39
999
Polygon Action,TRIANGULATE3DFACE
999
Color Scheme,Default
999
Text - True North
  0
TEXT
  8
1
  6
Continuous
 62
  3
 10
    99988.00000
 20
   100002.00000
 30
        0.10000
 40
 .25
  1
True North
 41
 0.0
  7
MONOTXT
210
0.0
220
0.0
230
1.0
999
Text - Building Title
  0
TEXT
  8
1
  6
Continuous
 62
  3
 10
    99985.00000
 20
    99998.00000
 30
        0.10000
 40
 .4
  1
Building - Building
 41
 0.0
  7
MONOTXT
210
0.0
220
0.0
230
1.0
999
North Arrow Stem
  0
3DFACE
  8
1
 62
  3
 10
    99989.00000
 20
   100002.00000
 30
        0.10000
 11
    99989.00000
 21
   100002.00000
 31
        0.00000
 12
    99989.00000
 22
    99999.00000
 32
        0.00000
 13
    99989.00000
 23
    99999.00000
 33
        0.10000
999
North Arrow Head 1
  0
3DFACE
  8
1
 62
  3
 10
    99989.00000
 20
   100002.00000
 30
        0.10000
 11
    99989.00000
 21
   100002.00000
 31
        0.00000
 12
    99988.50000
 22
   100001.13398
 32
        0.00000
 13
    99988.50000
 23
   100001.13398
 33
        0.10000
999
North Arrow Head 2
  0
3DFACE
  8
1
 62
  3
 10
    99989.00000
 20
   100002.00000
 30
        0.10000
 11
    99989.00000
 21
   100002.00000
 31
        0.00000
 12
    99989.50000
 22
   100001.13398
 32
        0.00000
 13
    99989.50000
 23
   100001.13398
 33
        0.10000
999
North Arrow Side 1
  0
3DFACE
  8
1
 62
  3
 10
    99988.50000
 20
   100003.50000
 30
        0.10000
 11
    99988.50000
 21
   100003.50000
 31
        0.00000
 12
    99988.50000
 22
   100002.50000
 32
        0.00000
 13
    99988.50000
 23
   100002.50000
 33
        0.10000
999
North Arrow Side 2
  0
3DFACE
  8
1
 62
  3
 10
    99988.50000
 20
   100003.50000
 30
        0.10000
 11
    99988.50000
 21
   100003.50000
 31
        0.00000
 12
    99989.50000
 22
   100002.50000
 32
        0.00000
 13
    99989.50000
 23
   100002.50000
 33
        0.10000
999
North Arrow Side 3
  0
3DFACE
  8
1
 62
  3
 10
    99989.50000
 20
   100003.50000
 30
        0.10000
 11
    99989.50000
 21
   100003.50000
 31
        0.00000
 12
    99989.50000
 22
   100002.50000
 32
        0.00000
 13
    99989.50000
 23
   100002.50000
 33
        0.10000
999
Zone Names
999
Zone=1:PERIM
999
Zone=2:CORE
999
Building Shading:SHADER_0
  0
3DFACE
  8
Building Shading
 62
195
 10
   961359.93750
 20
  1946555.12500
 30
       32.62150
 11
   961359.93750
 21
  1946555.12500
 31
       23.62150
 12
   961359.87500
 22
  1946550.50000
 32
       23.62150
 13
   961359.87500
 23
  1946550.50000
 33
       32.62150
999
Building Shading:Mir-SHADER_0
  0
3DFACE
  8
Building Shading
 62
195
 10
   961359.87500
 20
  1946550.50000
 30
       32.62150
 11
   961359.87500
 21
  1946550.50000
 31
       23.62150
 12
   961359.93750
 22
  1946555.12500
 32
       23.62150
 13
   961359.93750
 23
  1946555.12500
 33
       32.62150
999
Building Shading:SHADER_1
  0
3DFACE
  8
Building Shading
 62
195
 10
   961351.93750
 20
  1946563.87500
 30
       32.68250
 11
   961351.93750
 21
  1946563.87500
 31
       25.68250
 12
   961359.62500
 22
  1946564.25000
 32
       25.68250
 13
   961359.62500
 23
  1946564.25000
 33
       32.68250
999
Building Shading:Mir-SHADER_1
  0
3DFACE
  8
Building Shading
 62
195
 10
   961359.62500
 20
  1946564.25000
 30
       32.68250
 11
   961359.62500
 21
  1946564.25000
 31
       25.68250
 12
   961351.93750
 22
  1946563.87500
 32
       25.68250
 13
   961351.93750
 23
  1946563.87500
 33
       32.68250
999
Building Shading:SHADER_2
  0
3DFACE
  8
Building Shading
 62
195
 10
   961345.00000
 20
  1946562.37500
 30
       32.68250
 11
   961345.00000
 21
  1946562.37500
 31
       25.68250
 12
   961352.00000
 22
  1946562.62500
 32
       25.68250
 13
   961352.00000
 23
  1946562.62500
 33
       32.68250
999
Building Shading:Mir-SHADER_2
  0
3DFACE
  8
Building Shading
 62
195
 10
   961352.00000
 20
  1946562.62500
 30
       32.68250
 11
   961352.00000
 21
  1946562.62500
 31
       25.68250
 12
   961345.00000
 22
  1946562.37500
 32
       25.68250
 13
   961345.00000
 23
  1946562.37500
 33
       32.68250
999
Building Shading:SHADER_3
  0
3DFACE
  8
Building Shading
 62
195
 10
   961335.93750
 20
  1946563.12500
 30
       33.60670
 11
   961335.93750
 21
  1946563.12500
 31
       26.60670
 12
   961343.06250
 22
  1946563.37500
 32
       26.60670
 13
   961343.06250
 23
  1946563.37500
 33
       33.60670
999
Building Shading:Mir-SHADER_3
  0
3DFACE
  8
Building Shading
 62
195
 10
   961343.06250
 20
  1946563.37500
 30
       33.60670
 11
   961343.06250
 21
  1946563.37500
 31
       26.60670
 12
   961335.93750
 22
  1946563.12500
 32
       26.60670
 13
   961335.93750
 23
  1946563.12500
 33
       33.60670
999
Building Shading:SHADER_4
  0
3DFACE
  8
Building Shading
 62
195
 10
   961343.06250
 20
  1946540.25000
 30
       30.76600
 11
   961343.06250
 21
  1946540.25000
 31
       24.76600
 12
   961342.62500
 22
  1946550.62500
 32
       24.76600
 13
   961342.62500
 23
  1946550.62500
 33
       30.76600
999
Building Shading:Mir-SHADER_4
  0
3DFACE
  8
Building Shading
 62
195
 10
   961342.62500
 20
  1946550.62500
 30
       30.76600
 11
   961342.62500
 21
  1946550.62500
 31
       24.76600
 12
   961343.06250
 22
  1946540.25000
 32
       24.76600
 13
   961343.06250
 23
  1946540.25000
 33
       30.76600
999
PERIM:PERIM:F0
  0
3DFACE
  8
PERIM
 62
 43
 10
   961345.23630
 20
  1946548.42250
 30
       26.96640
 11
   961345.23630
 21
  1946548.42250
 31
       23.85810
 12
   961342.23840
 22
  1946548.31170
 32
       23.85810
 13
   961342.23840
 23
  1946548.31170
 33
       26.96640
999
PERIM:PERIM:F0:W0
  0
3DFACE
  8
PERIM
 62
143
 10
   961345.13640
 20
  1946548.41880
 30
       26.04020
 11
   961345.13640
 21
  1946548.41880
 31
       24.70810
 12
   961342.33830
 22
  1946548.31530
 32
       24.70810
 13
   961342.33830
 23
  1946548.31530
 33
       26.04020
999
PERIM:PERIM:F1
  0
3DFACE
  8
PERIM
 62
 43
 10
   961342.34110
 20
  1946545.53220
 30
       26.96640
 11
   961342.34110
 21
  1946545.53220
 31
       23.85810
 12
   961345.33910
 22
  1946545.64300
 32
       23.85810
 13
   961345.33910
 23
  1946545.64300
 33
       26.96640
999
PERIM:PERIM:F2
  0
3DFACE
  8
PERIM
 62
 43
 10
   961342.23840
 20
  1946548.31170
 30
       26.96640
 11
   961342.23840
 21
  1946548.31170
 31
       23.85810
 12
   961342.34110
 22
  1946545.53220
 32
       23.85810
 13
   961342.34110
 23
  1946545.53220
 33
       26.96640
999
PERIM:PERIM:F3
  0
3DFACE
  8
PERIM
 62
 43
 10
   961345.33910
 20
  1946545.64300
 30
       26.96640
 11
   961345.33910
 21
  1946545.64300
 31
       23.85810
 12
   961345.23630
 22
  1946548.42250
 32
       23.85810
 13
   961345.23630
 23
  1946548.42250
 33
       26.96640
999
PERIM:PERIM:F4
  0
3DFACE
  8
PERIM
 62
  8
 10
   961345.23630
 20
  1946548.42250
 30
       23.85810
 11
   961345.33130
 21
  1946545.85470
 31
       23.85810
 12
   961342.33330
 22
  1946545.74380
 32
       23.85810
 13
   961342.23840
 23
  1946548.31170
 33
       23.85810
999
PERIM:PERIM:F5
  0
3DFACE
  8
PERIM
 62
  8
 10
   961345.33130
 20
  1946545.85470
 30
       23.85810
 11
   961345.33910
 21
  1946545.64300
 31
       23.85810
 12
   961342.34110
 22
  1946545.53220
 32
       23.85810
 13
   961342.33330
 23
  1946545.74380
 33
       23.85810
999
PERIM:PERIM:F6
  0
3DFACE
  8
PERIM
 62
 15
 10
   961345.23630
 20
  1946548.42250
 30
       26.96640
 11
   961342.23840
 21
  1946548.31170
 31
       26.96640
 12
   961342.33330
 22
  1946545.74380
 32
       26.96640
 13
   961345.33130
 23
  1946545.85470
 33
       26.96640
999
PERIM:PERIM:F7
  0
3DFACE
  8
PERIM
 62
 15
 10
   961345.33130
 20
  1946545.85470
 30
       26.96640
 11
   961342.33330
 21
  1946545.74380
 31
       26.96640
 12
   961342.34110
 22
  1946545.53220
 32
       26.96640
 13
   961345.33910
 23
  1946545.64300
 33
       26.96640
999
CORE:CORE:F0
  0
3DFACE
  8
CORE
 62
 43
 10
   961345.33910
 20
  1946545.64300
 30
       26.96640
 11
   961345.33910
 21
  1946545.64300
 31
       23.85810
 12
   961342.34110
 22
  1946545.53220
 32
       23.85810
 13
   961342.34110
 23
  1946545.53220
 33
       26.96640
999
CORE:CORE:F1
  0
3DFACE
  8
CORE
 62
 43
 10
   961342.40290
 20
  1946543.86170
 30
       26.96640
 11
   961342.40290
 21
  1946543.86170
 31
       23.85810
 12
   961345.40090
 22
  1946543.97260
 32
       23.85810
 13
   961345.40090
 23
  1946543.97260
 33
       26.96640
999
CORE:CORE:F2
  0
3DFACE
  8
CORE
 62
 43
 10
   961342.34110
 20
  1946545.53220
 30
       26.96640
 11
   961342.34110
 21
  1946545.53220
 31
       23.85810
 12
   961342.40290
 22
  1946543.86170
 32
       23.85810
 13
   961342.40290
 23
  1946543.86170
 33
       26.96640
999
CORE:CORE:F3
  0
3DFACE
  8
CORE
 62
 43
 10
   961345.40090
 20
  1946543.97260
 30
       26.96640
 11
   961345.40090
 21
  1946543.97260
 31
       23.85810
 12
   961345.33910
 22
  1946545.64300
 32
       23.85810
 13
   961345.33910
 23
  1946545.64300
 33
       26.96640
999
CORE:CORE:F4
  0
3DFACE
  8
CORE
 62
  8
 10
   961345.33910
 20
  1946545.64300
 30
       23.85810
 11
   961345.39610
 21
  1946544.09980
 31
       23.85810
 12
   961342.39820
 22
  1946543.98890
 32
       23.85810
 13
   961342.34110
 23
  1946545.53220
 33
       23.85810
999
CORE:CORE:F5
  0
3DFACE
  8
CORE
 62
  8
 10
   961345.39610
 20
  1946544.09980
 30
       23.85810
 11
   961345.40090
 21
  1946543.97260
 31
       23.85810
 12
   961342.40290
 22
  1946543.86170
 32
       23.85810
 13
   961342.39820
 23
  1946543.98890
 33
       23.85810
999
CORE:CORE:F6
  0
3DFACE
  8
CORE
 62
 15
 10
   961345.33910
 20
  1946545.64300
 30
       26.96640
 11
   961342.34110
 21
  1946545.53220
 31
       26.96640
 12
   961342.39820
 22
  1946543.98890
 32
       26.96640
 13
   961345.39610
 23
  1946544.09980
 33
       26.96640
999
CORE:CORE:F7
  0
3DFACE
  8
CORE
 62
 15
 10
   961345.39610
 20
  1946544.09980
 30
       26.96640
 11
   961342.39820
 21
  1946543.98890
 31
       26.96640
 12
   961342.40290
 22
  1946543.86170
 32
       26.96640
 13
   961345.40090
 23
  1946543.97260
 33
       26.96640
  0
ENDSEC
  0
EOF
